LAMMPS (29 Sep 2021 - Update 2)
# LAMMPS input script
# author : Simon Gravelle
# https://lammpstutorials.github.io
# https://lammpstutorials.github.io/tutorials/03-NanoconfinedElectrolyte.html

# Initialisation
boundary p p p
units real
atom_style full
bond_style harmonic
angle_style harmonic
pair_style lj/cut/tip4p/long 1 2 1 1 0.1546 12.0
kspace_style pppm/tip4p 1.0e-4

# System definition
read_data ../SystemCreation/system.data
Reading data file ...
  orthogonal box = (-16.160000 -16.160000 -52.520000) to (16.160000 16.160000 52.520000)
  reading atoms ...
  4948 atoms
  reading velocities ...
  4948 velocities
  scanning bonds ...
  scanning angles ...
  reading bonds ...
  2432 bonds
  reading angles ...
  1216 angles
Finding 1-2 1-3 1-4 neighbors ...
     2 = max # of 1-2 neighbors
     1 = max # of 1-3 neighbors
     1 = max # of 1-4 neighbors
     2 = max # of special neighbors

# settings
include ../PARM.lammps
# LAMMPS parameter script
# author : Simon Gravelle
# lammpstutorials.github.io

mass 1 15.9994 # water
mass 2 1.008 # water
mass 3 28.990 # ion
mass 4 35.453 # ion
mass 5 26.9815 # wall

pair_coeff 1 1 0.185199 3.1589 # water
pair_coeff 2 2 0.0 0.0 # water
pair_coeff 3 3 0.04690 2.4299 # ion
pair_coeff 4 4 0.1500 4.04470 # ion
pair_coeff 5 5 11.697 2.574 # wall

bond_coeff 1 0 0.9572 # water

angle_coeff 1 0 104.52 # water

group gH2O type 1 2
3648 atoms in group gH2O

dump mydmp all atom 1000 dump.lammpstrj

# run
# walls
#fix mysf1 gtopwall setforce 0 0 NULL
#fix mysf2 gbotwall setforce 0 0 NULL
#fix myaf1 gtopwall aveforce NULL NULL 0
#fix myaf2 gbotwall aveforce NULL NULL 0

fix mynve all nve/limit 0.1
fix myber all temp/berendsen 1 1 1

fix myshk gH2O shake 1.0e-4 200 0 b 1 a 1
       0 = # of size 2 clusters
       0 = # of size 3 clusters
       0 = # of size 4 clusters
    1216 = # of frozen angles
  find clusters CPU = 0.001 seconds
fix myrct all recenter NULL NULL INIT

timestep 0.5
thermo 50
run 10000
PPPM initialization ...
  extracting TIP4P info from pair style
  G vector (1/distance) = 0.21735333
  grid = 15 15 36
  stencil order = 5
  estimated absolute RMS force accuracy = 0.02944634
  estimated relative force accuracy = 8.8676777e-05
  3d grid and FFT values/proc = 19844 8100
  update every 1 steps, delay 10 steps, check yes
Step Temp E_pair E_mol TotEng Press
0            0   -99554.799            0   -99554.799   -1008.4767
Averages over the last 101 of 201 rows, steps 5000 to 10000:
Temp E_pair E_mol TotEng Press
1.03678 -120166 0 -120154 -12897.8
Loop time of 194.097 on 1 procs for 10000 steps with 4948 atoms

write_data system.data
System init for write_data ...
PPPM initialization ...
  extracting TIP4P info from pair style
  G vector (1/distance) = 0.21735333
  grid = 15 15 36
  stencil order = 5
  estimated absolute RMS force accuracy = 0.02944634
  estimated relative force accuracy = 8.8676777e-05
  3d grid and FFT values/proc = 19844 8100
