LAMMPS (29 Sep 2021 - Update 2)
# LAMMPS input script
# author : Simon Gravelle
# lammpstutorials.github.io

# Initialization
units metal
boundary p p p
atom_style full
pair_style vashishta
neighbor 1.0 bin
neigh_modify delay 1

# System definition
read_data SiO.data
Reading data file ...
  orthogonal box = (0.0000000 0.0000000 0.0000000) to (5.1463944 5.1463944 5.1463944)
  reading atoms ...
  9 atoms
Finding 1-2 1-3 1-4 neighbors ...
     0 = max # of 1-2 neighbors
     0 = max # of 1-3 neighbors
     0 = max # of 1-4 neighbors
     1 = max # of special neighbors
replicate 4 4 4
Replicating atoms ...
  orthogonal box = (0.0000000 0.0000000 0.0000000) to (20.585578 20.585578 20.585578)
  576 atoms
Finding 1-2 1-3 1-4 neighbors ...
     0 = max # of 1-2 neighbors
     0 = max # of 1-3 neighbors
     0 = max # of 1-4 neighbors
     1 = max # of special neighbors
  replicate CPU = 0.003 seconds

# Simulation settings
pair_coeff * *  SiO.1990.vashishta Si O
Reading vashishta potential file SiO.1990.vashishta with DATE: 2015-10-14
dump dmp all atom 5000 dump.lammpstrj

# Run
velocity all create 6000 4928459 rot yes dist gaussian
fix nvt1 all nvt temp 6000 6000 0.1
timestep 0.001
thermo 1000
run 5000
  update every 1 steps, delay 1 steps, check yes
Step Temp E_pair E_mol TotEng Press
0         6000   -2060.8001            0   -1614.8526    779045.54
Loop time of 19.6806 on 4 procs for 5000 steps with 576 atoms

unfix nvt1
fix npt1 all npt temp 6000 4000 0.1 aniso 100 100 1
run 50000
Step Temp E_pair E_mol TotEng Press Volume
5000    5671.5122   -4445.7879            0   -4024.2551    45221.603    8723.4681
Averages over the last 26 of 51 rows, steps 30000 to 55000:
Temp E_pair E_mol TotEng Press Volume
4483.06 -4623.07 0 -4289.87 -565.075 9368.7
Loop time of 169.446 on 4 procs for 50000 steps with 576 atoms

fix npt1 all npt temp 4000 300 0.1 aniso 100 1 1
run 200000
Step Temp E_pair E_mol TotEng Press Volume
55000    4021.9851   -4713.0027            0   -4414.0703   -3458.1312    8917.4923
Averages over the last 101 of 201 rows, steps 155000 to 255000:
Temp E_pair E_mol TotEng Press Volume
1226.06 -5102.49 0 -5011.36 -71.2505 7565.59
Loop time of 775.482 on 4 procs for 200000 steps with 576 atoms

fix npt1 all npt temp 300 300 0.1 aniso 1 1 1
run 4000
Step Temp E_pair E_mol TotEng Press Volume
255000    303.43941   -5179.7581            0   -5157.2051   -1504.9719    7410.7846
Loop time of 15.2093 on 4 procs for 4000 steps with 576 atoms

write_data amorphousSiO.data
System init for write_data ...
