LAMMPS (29 Sep 2021 - Update 2)
# LAMMPS input script
# author : Simon Gravelle
# lammpstutorials.github.io

# define a bunch of variables
variable sigma equal 3.405 # Angstrom
variable epsilon equal 0.238 # Kcal/mol
variable U0 equal 10*0.238
variable dlt equal 0.5 # Angstrom
variable x0 equal 5.0 # Angstrom
variable k equal 1.5 # Kcal/mol/Angstrom^2

# initialise the simulation
units real
atom_style atomic
pair_style lj/cut 3.822 # 2^(1/6) * 3.405 WCA potential
pair_modify shift yes
boundary p p p

# define the system
region myreg block -25 25 -20 20 -20 20
create_box 2 myreg
Created orthogonal box = (-25.000000 -20.000000 -20.000000) to (25.000000 20.000000 20.000000)
create_atoms 2 single 0 0 0
Created 1 atoms
create_atoms 1 random 5 341341 myreg
Created 5 atoms

# settings
mass * 39.948
pair_coeff * * 0.238 3.405
neigh_modify every 1 delay 4 check yes
group topull type 2
1 atoms in group topull

# run
variable U atom 2.38*atan((x+5)/0.5)-2.38*atan((x-5)/0.5)
variable F atom 2.38/((x-5)^2/0.5^2+1)/0.5-2.38/((x+5)^2/0.5^2+1)/0.5
fix pot all addforce v_F 0.0 0.0 energy v_U

fix mynve all nve
fix mylgv all langevin 119.8 119.8 100 1530917
timestep 2.0
thermo 100000
run 2000000
  update every 1 steps, delay 4 steps, check yes
Step Temp E_pair E_mol TotEng Press
0            0            0            0            0            0
Averages over the last 11 of 21 rows, steps 1000000 to 2000000:
Temp E_pair E_mol TotEng Press
144.293 0 0 2.15055 1.22883
Loop time of 7.57625 on 1 procs for 2000000 steps with 6 atoms

reset_timestep 0

dump mydmp all atom 1000000 dump.lammpstrj

variable a loop 50
label loop
variable xdes equal 1-25
variable xave equal xcm(topull,x)
fix mytth topull spring tether 1.5 -24 0 0 0
run 200000 # equilibrate
Step Temp E_pair E_mol TotEng Press
0    161.99531            0            0    2.4143863    1.3795887
Loop time of 0.774253 on 1 procs for 200000 steps with 6 atoms

fix myat1 all ave/time 10 10 100 v_xave v_xdes file position.1.dat
run 1000000 # data aquisition
Step Temp E_pair E_mol TotEng Press
200000    162.42488            0            0    2.4207886     1.383247
Averages over the last 6 of 11 rows, steps 700000 to 1200000:
Temp E_pair E_mol TotEng Press
145.465 0 0 2.16801 1.23881
Loop time of 4.01503 on 1 procs for 1000000 steps with 6 atoms

unfix myat1
next a
jump SELF loop
variable xdes equal 2-25
variable xave equal xcm(topull,x)
fix mytth topull spring tether 1.5 -23 0 0 0
run 200000 # equilibrate
Step Temp E_pair E_mol TotEng Press
1200000    64.322482            0            0   0.95866551   0.54778479
Loop time of 0.781913 on 1 procs for 200000 steps with 6 atoms

fix myat1 all ave/time 10 10 100 v_xave v_xdes file position.2.dat
run 1000000 # data aquisition
Step Temp E_pair E_mol TotEng Press
1400000    130.25575            0            0    1.9413383    1.1092874
Averages over the last 6 of 11 rows, steps 1900000 to 2400000:
Temp E_pair E_mol TotEng Press
143.75 0 0 2.14245 1.2242
Loop time of 4.07402 on 1 procs for 1000000 steps with 6 atoms

unfix myat1
next a
jump SELF loop
variable xdes equal 3-25
variable xave equal xcm(topull,x)
fix mytth topull spring tether 1.5 -22 0 0 0
run 200000 # equilibrate
Step Temp E_pair E_mol TotEng Press
2400000    170.73486            0            0    2.5446409    1.4540166
Loop time of 0.78483 on 1 procs for 200000 steps with 6 atoms

fix myat1 all ave/time 10 10 100 v_xave v_xdes file position.3.dat
run 1000000 # data aquisition
Step Temp E_pair E_mol TotEng Press
2600000    139.50052            0            0    2.0791227    1.1880179
Averages over the last 6 of 11 rows, steps 3100000 to 3600000:
Temp E_pair E_mol TotEng Press
152.439 0 0 2.27196 1.29821
Loop time of 4.13792 on 1 procs for 1000000 steps with 6 atoms

unfix myat1
next a
jump SELF loop
variable xdes equal 4-25
variable xave equal xcm(topull,x)
fix mytth topull spring tether 1.5 -21 0 0 0
run 200000 # equilibrate
Step Temp E_pair E_mol TotEng Press
3600000    198.19382            0            0    2.9538906    1.6878633
Loop time of 0.802558 on 1 procs for 200000 steps with 6 atoms

fix myat1 all ave/time 10 10 100 v_xave v_xdes file position.4.dat
run 1000000 # data aquisition
Step Temp E_pair E_mol TotEng Press
3800000    192.99148            0            0    2.8763547     1.643559
Averages over the last 6 of 11 rows, steps 4300000 to 4800000:
Temp E_pair E_mol TotEng Press
141.41 0 0 2.10758 1.20428
Loop time of 4.10698 on 1 procs for 1000000 steps with 6 atoms

unfix myat1
next a
jump SELF loop
variable xdes equal 5-25
variable xave equal xcm(topull,x)
fix mytth topull spring tether 1.5 -20 0 0 0
run 200000 # equilibrate
Step Temp E_pair E_mol TotEng Press
4800000    178.68784            0            0    2.6631726     1.521746
Loop time of 0.801265 on 1 procs for 200000 steps with 6 atoms

fix myat1 all ave/time 10 10 100 v_xave v_xdes file position.5.dat
run 1000000 # data aquisition
Step Temp E_pair E_mol TotEng Press
5000000    151.64331            0            0    2.2600995    1.2914287
Averages over the last 6 of 11 rows, steps 5500000 to 6000000:
Temp E_pair E_mol TotEng Press
150.683 0 0 2.24579 1.28325
Loop time of 4.12218 on 1 procs for 1000000 steps with 6 atoms

unfix myat1
next a
jump SELF loop
variable xdes equal 6-25
variable xave equal xcm(topull,x)
fix mytth topull spring tether 1.5 -19 0 0 0
run 200000 # equilibrate
Step Temp E_pair E_mol TotEng Press
6000000     100.2926            0            0     1.494766   0.85411446
Loop time of 0.805356 on 1 procs for 200000 steps with 6 atoms

fix myat1 all ave/time 10 10 100 v_xave v_xdes file position.6.dat
run 1000000 # data aquisition
Step Temp E_pair E_mol TotEng Press
6200000    108.60257            0            0    1.6186181   0.92488398
Averages over the last 6 of 11 rows, steps 6700000 to 7200000:
Temp E_pair E_mol TotEng Press
172.886 0 0 2.57671 1.47234
Loop time of 4.03852 on 1 procs for 1000000 steps with 6 atoms

unfix myat1
next a
jump SELF loop
variable xdes equal 7-25
variable xave equal xcm(topull,x)
fix mytth topull spring tether 1.5 -18 0 0 0
run 200000 # equilibrate
Step Temp E_pair E_mol TotEng Press
7200000    174.38862            0            0    2.5990967    1.4851328
Loop time of 0.79933 on 1 procs for 200000 steps with 6 atoms

fix myat1 all ave/time 10 10 100 v_xave v_xdes file position.7.dat
run 1000000 # data aquisition
Step Temp E_pair E_mol TotEng Press
7400000    135.71254            0            0    2.0226665    1.1557586
Averages over the last 6 of 11 rows, steps 7900000 to 8400000:
Temp E_pair E_mol TotEng Press
104.771 0 0 1.56152 0.892256
Loop time of 4.08437 on 1 procs for 1000000 steps with 6 atoms

unfix myat1
next a
jump SELF loop
variable xdes equal 8-25
variable xave equal xcm(topull,x)
fix mytth topull spring tether 1.5 -17 0 0 0
run 200000 # equilibrate
Step Temp E_pair E_mol TotEng Press
8400000    87.801933            0            0    1.3086044   0.74774109
Loop time of 0.842818 on 1 procs for 200000 steps with 6 atoms

fix myat1 all ave/time 10 10 100 v_xave v_xdes file position.8.dat
run 1000000 # data aquisition
Step Temp E_pair E_mol TotEng Press
8600000    131.39174            0            0    1.9582691    1.1189617
Averages over the last 6 of 11 rows, steps 9100000 to 9600000:
Temp E_pair E_mol TotEng Press
161.68 0 0 2.40969 1.3769
Loop time of 4.32267 on 1 procs for 1000000 steps with 6 atoms

unfix myat1
next a
jump SELF loop
variable xdes equal 9-25
variable xave equal xcm(topull,x)
fix mytth topull spring tether 1.5 -16 0 0 0
run 200000 # equilibrate
Step Temp E_pair E_mol TotEng Press
9600000    192.68225            0            0    2.8717459    1.6409255
Loop time of 0.851804 on 1 procs for 200000 steps with 6 atoms

fix myat1 all ave/time 10 10 100 v_xave v_xdes file position.9.dat
run 1000000 # data aquisition
Step Temp E_pair E_mol TotEng Press
9800000    157.88724            0            0    2.3531594    1.3446034
Averages over the last 6 of 11 rows, steps 10300000 to 10800000:
Temp E_pair E_mol TotEng Press
214.076 0 0 3.1906 1.82312
Loop time of 4.32822 on 1 procs for 1000000 steps with 6 atoms

unfix myat1
next a
jump SELF loop
variable xdes equal 10-25
variable xave equal xcm(topull,x)
fix mytth topull spring tether 1.5 -15 0 0 0
run 200000 # equilibrate
Step Temp E_pair E_mol TotEng Press
10800000    318.12957            0            0    4.7414192    2.7092633
Loop time of 0.848019 on 1 procs for 200000 steps with 6 atoms

fix myat1 all ave/time 10 10 100 v_xave v_xdes file position.10.dat
run 1000000 # data aquisition
Step Temp E_pair E_mol TotEng Press
11000000    124.81833            0            0    1.8602987    1.0629811
Averages over the last 6 of 11 rows, steps 11500000 to 12000000:
Temp E_pair E_mol TotEng Press
169.922 0.00146567 0 2.53399 1.47826
Loop time of 4.37228 on 1 procs for 1000000 steps with 6 atoms

unfix myat1
next a
jump SELF loop
variable xdes equal 11-25
variable xave equal xcm(topull,x)
fix mytth topull spring tether 1.5 -14 0 0 0
run 200000 # equilibrate
Step Temp E_pair E_mol TotEng Press
12000000    181.45306            0            0    2.7043856    1.5452953
Loop time of 0.856811 on 1 procs for 200000 steps with 6 atoms

fix myat1 all ave/time 10 10 100 v_xave v_xdes file position.11.dat
run 1000000 # data aquisition
Step Temp E_pair E_mol TotEng Press
12200000    144.22022            0            0    2.1494654    1.2282119
Averages over the last 6 of 11 rows, steps 12700000 to 13200000:
Temp E_pair E_mol TotEng Press
133.768 0 0 1.99369 1.1392
Loop time of 4.38358 on 1 procs for 1000000 steps with 6 atoms

unfix myat1
next a
jump SELF loop
variable xdes equal 12-25
variable xave equal xcm(topull,x)
fix mytth topull spring tether 1.5 -13 0 0 0
run 200000 # equilibrate
Step Temp E_pair E_mol TotEng Press
13200000    182.51668            0            0    2.7202377    1.5543533
Loop time of 0.855764 on 1 procs for 200000 steps with 6 atoms

fix myat1 all ave/time 10 10 100 v_xave v_xdes file position.12.dat
run 1000000 # data aquisition
Step Temp E_pair E_mol TotEng Press
13400000    105.11154            0            0    1.5665877    0.8951536
Averages over the last 6 of 11 rows, steps 13900000 to 14400000:
Temp E_pair E_mol TotEng Press
187.285 0.00236477 0 2.79367 1.63628
Loop time of 4.29125 on 1 procs for 1000000 steps with 6 atoms

unfix myat1
next a
jump SELF loop
variable xdes equal 13-25
variable xave equal xcm(topull,x)
fix mytth topull spring tether 1.5 -12 0 0 0
run 200000 # equilibrate
Step Temp E_pair E_mol TotEng Press
14400000    201.10498            0            0    2.9972787    1.7126554
Loop time of 0.852301 on 1 procs for 200000 steps with 6 atoms

fix myat1 all ave/time 10 10 100 v_xave v_xdes file position.13.dat
run 1000000 # data aquisition
Step Temp E_pair E_mol TotEng Press
14600000    157.80462            0            0     2.351928    1.3438998
Averages over the last 6 of 11 rows, steps 15100000 to 15600000:
Temp E_pair E_mol TotEng Press
158.22 0 0 2.35812 1.34744
Loop time of 4.36043 on 1 procs for 1000000 steps with 6 atoms

unfix myat1
next a
jump SELF loop
variable xdes equal 14-25
variable xave equal xcm(topull,x)
fix mytth topull spring tether 1.5 -11 0 0 0
run 200000 # equilibrate
Step Temp E_pair E_mol TotEng Press
15600000    99.095275            0            0     1.476921   0.84391774
Loop time of 0.857248 on 1 procs for 200000 steps with 6 atoms

fix myat1 all ave/time 10 10 100 v_xave v_xdes file position.14.dat
run 1000000 # data aquisition
Step Temp E_pair E_mol TotEng Press
15800000    141.49686            0            0    2.1088763    1.2050192
Averages over the last 6 of 11 rows, steps 16300000 to 16800000:
Temp E_pair E_mol TotEng Press
124.345 0 0 1.85325 1.05895
Loop time of 4.28631 on 1 procs for 1000000 steps with 6 atoms

unfix myat1
next a
jump SELF loop
variable xdes equal 15-25
variable xave equal xcm(topull,x)
fix mytth topull spring tether 1.5 -10 0 0 0
run 200000 # equilibrate
Step Temp E_pair E_mol TotEng Press
16800000    118.38354            0            0    1.7643942    1.0081809
Loop time of 0.845229 on 1 procs for 200000 steps with 6 atoms

fix myat1 all ave/time 10 10 100 v_xave v_xdes file position.15.dat
run 1000000 # data aquisition
Step Temp E_pair E_mol TotEng Press
17000000    132.73499            0            0     1.978289    1.1304012
Averages over the last 6 of 11 rows, steps 17500000 to 18000000:
Temp E_pair E_mol TotEng Press
153.96 0 0 2.29463 1.31116
Loop time of 4.34416 on 1 procs for 1000000 steps with 6 atoms

unfix myat1
next a
jump SELF loop
variable xdes equal 16-25
variable xave equal xcm(topull,x)
fix mytth topull spring tether 1.5 -9 0 0 0
run 200000 # equilibrate
Step Temp E_pair E_mol TotEng Press
18000000     136.5365            0            0    2.0349469    1.1627757
Loop time of 0.85053 on 1 procs for 200000 steps with 6 atoms

fix myat1 all ave/time 10 10 100 v_xave v_xdes file position.16.dat
run 1000000 # data aquisition
Step Temp E_pair E_mol TotEng Press
18200000    68.094963            0            0    1.0148908   0.57991209
Averages over the last 6 of 11 rows, steps 18700000 to 19200000:
Temp E_pair E_mol TotEng Press
177.73 0 0 2.6489 1.51359
Loop time of 4.322 on 1 procs for 1000000 steps with 6 atoms

unfix myat1
next a
jump SELF loop
variable xdes equal 17-25
variable xave equal xcm(topull,x)
fix mytth topull spring tether 1.5 -8 0 0 0
run 200000 # equilibrate
Step Temp E_pair E_mol TotEng Press
19200000    94.404003            0            0     1.407002   0.80396581
Loop time of 0.856582 on 1 procs for 200000 steps with 6 atoms

fix myat1 all ave/time 10 10 100 v_xave v_xdes file position.17.dat
run 1000000 # data aquisition
Step Temp E_pair E_mol TotEng Press
19400000    74.644865            0            0    1.1125108   0.63569253
Averages over the last 6 of 11 rows, steps 19900000 to 20400000:
Temp E_pair E_mol TotEng Press
160.219 0 0 2.38791 1.36446
Loop time of 4.2746 on 1 procs for 1000000 steps with 6 atoms

unfix myat1
next a
jump SELF loop
variable xdes equal 18-25
variable xave equal xcm(topull,x)
fix mytth topull spring tether 1.5 -7 0 0 0
run 200000 # equilibrate
Step Temp E_pair E_mol TotEng Press
20400000     204.7353            0            0    3.0513853    1.7435721
Loop time of 0.854284 on 1 procs for 200000 steps with 6 atoms

fix myat1 all ave/time 10 10 100 v_xave v_xdes file position.18.dat
run 1000000 # data aquisition
Step Temp E_pair E_mol TotEng Press
20600000    151.41816            0            0    2.2567439    1.2895113
Averages over the last 6 of 11 rows, steps 21100000 to 21600000:
Temp E_pair E_mol TotEng Press
172.325 0 0 2.56834 1.46756
Loop time of 4.26394 on 1 procs for 1000000 steps with 6 atoms

unfix myat1
next a
jump SELF loop
variable xdes equal 19-25
variable xave equal xcm(topull,x)
fix mytth topull spring tether 1.5 -6 0 0 0
run 200000 # equilibrate
Step Temp E_pair E_mol TotEng Press
21600000    132.18789            0            0     1.970135    1.1257419
Loop time of 0.854543 on 1 procs for 200000 steps with 6 atoms

fix myat1 all ave/time 10 10 100 v_xave v_xdes file position.19.dat
run 1000000 # data aquisition
Step Temp E_pair E_mol TotEng Press
21800000    118.04688            0            0    1.7593766    1.0053139
Averages over the last 6 of 11 rows, steps 22300000 to 22800000:
Temp E_pair E_mol TotEng Press
141.466 0 0 2.10842 1.20476
Loop time of 4.2439 on 1 procs for 1000000 steps with 6 atoms

unfix myat1
next a
jump SELF loop
variable xdes equal 20-25
variable xave equal xcm(topull,x)
fix mytth topull spring tether 1.5 -5 0 0 0
run 200000 # equilibrate
Step Temp E_pair E_mol TotEng Press
22800000    158.39044            0            0     2.360659    1.3488887
Loop time of 0.847498 on 1 procs for 200000 steps with 6 atoms

fix myat1 all ave/time 10 10 100 v_xave v_xdes file position.20.dat
run 1000000 # data aquisition
Loop time of 4.25473 on 1 procs for 1000000 steps with 6 atoms

unfix myat1
next a
jump SELF loop
variable xdes equal 21-25
variable xave equal xcm(topull,x)
fix mytth topull spring tether 1.5 -4 0 0 0
run 200000 # equilibrate
Loop time of 0.849021 on 1 procs for 200000 steps with 6 atoms

fix myat1 all ave/time 10 10 100 v_xave v_xdes file position.21.dat
run 1000000 # data aquisition
Loop time of 4.2575 on 1 procs for 1000000 steps with 6 atoms

unfix myat1
next a
jump SELF loop
variable xdes equal 22-25
variable xave equal xcm(topull,x)
fix mytth topull spring tether 1.5 -3 0 0 0
run 200000 # equilibrate
Loop time of 0.845701 on 1 procs for 200000 steps with 6 atoms

fix myat1 all ave/time 10 10 100 v_xave v_xdes file position.22.dat
run 1000000 # data aquisition
Loop time of 4.30878 on 1 procs for 1000000 steps with 6 atoms

unfix myat1
next a
jump SELF loop
variable xdes equal 23-25
variable xave equal xcm(topull,x)
fix mytth topull spring tether 1.5 -2 0 0 0
run 200000 # equilibrate
Loop time of 0.852831 on 1 procs for 200000 steps with 6 atoms

fix myat1 all ave/time 10 10 100 v_xave v_xdes file position.23.dat
run 1000000 # data aquisition
Loop time of 4.26899 on 1 procs for 1000000 steps with 6 atoms

unfix myat1
next a
jump SELF loop
variable xdes equal 24-25
variable xave equal xcm(topull,x)
fix mytth topull spring tether 1.5 -1 0 0 0
run 200000 # equilibrate
Loop time of 0.843331 on 1 procs for 200000 steps with 6 atoms

fix myat1 all ave/time 10 10 100 v_xave v_xdes file position.24.dat
run 1000000 # data aquisition
Loop time of 4.21296 on 1 procs for 1000000 steps with 6 atoms

unfix myat1
next a
jump SELF loop
variable xdes equal 25-25
variable xave equal xcm(topull,x)
fix mytth topull spring tether 1.5 0 0 0 0
run 200000 # equilibrate
Loop time of 0.796791 on 1 procs for 200000 steps with 6 atoms

fix myat1 all ave/time 10 10 100 v_xave v_xdes file position.25.dat
run 1000000 # data aquisition
Loop time of 4.11892 on 1 procs for 1000000 steps with 6 atoms

unfix myat1
next a
jump SELF loop
variable xdes equal 26-25
variable xave equal xcm(topull,x)
fix mytth topull spring tether 1.5 1 0 0 0
run 200000 # equilibrate
Loop time of 0.791048 on 1 procs for 200000 steps with 6 atoms

fix myat1 all ave/time 10 10 100 v_xave v_xdes file position.26.dat
run 1000000 # data aquisition
Loop time of 4.12492 on 1 procs for 1000000 steps with 6 atoms

unfix myat1
next a
jump SELF loop
variable xdes equal 27-25
variable xave equal xcm(topull,x)
fix mytth topull spring tether 1.5 2 0 0 0
run 200000 # equilibrate
Loop time of 0.795592 on 1 procs for 200000 steps with 6 atoms

fix myat1 all ave/time 10 10 100 v_xave v_xdes file position.27.dat
run 1000000 # data aquisition
Loop time of 4.13682 on 1 procs for 1000000 steps with 6 atoms

unfix myat1
next a
jump SELF loop
variable xdes equal 28-25
variable xave equal xcm(topull,x)
fix mytth topull spring tether 1.5 3 0 0 0
run 200000 # equilibrate
Loop time of 0.791911 on 1 procs for 200000 steps with 6 atoms

fix myat1 all ave/time 10 10 100 v_xave v_xdes file position.28.dat
run 1000000 # data aquisition
Loop time of 4.08154 on 1 procs for 1000000 steps with 6 atoms

unfix myat1
next a
jump SELF loop
variable xdes equal 29-25
variable xave equal xcm(topull,x)
fix mytth topull spring tether 1.5 4 0 0 0
run 200000 # equilibrate
Loop time of 0.806361 on 1 procs for 200000 steps with 6 atoms

fix myat1 all ave/time 10 10 100 v_xave v_xdes file position.29.dat
run 1000000 # data aquisition
Loop time of 4.18069 on 1 procs for 1000000 steps with 6 atoms

unfix myat1
next a
jump SELF loop
variable xdes equal 30-25
variable xave equal xcm(topull,x)
fix mytth topull spring tether 1.5 5 0 0 0
run 200000 # equilibrate
Loop time of 0.812414 on 1 procs for 200000 steps with 6 atoms

fix myat1 all ave/time 10 10 100 v_xave v_xdes file position.30.dat
run 1000000 # data aquisition
Loop time of 4.1626 on 1 procs for 1000000 steps with 6 atoms

unfix myat1
next a
jump SELF loop
variable xdes equal 31-25
variable xave equal xcm(topull,x)
fix mytth topull spring tether 1.5 6 0 0 0
run 200000 # equilibrate
Loop time of 0.809547 on 1 procs for 200000 steps with 6 atoms

fix myat1 all ave/time 10 10 100 v_xave v_xdes file position.31.dat
run 1000000 # data aquisition
Loop time of 4.16198 on 1 procs for 1000000 steps with 6 atoms

unfix myat1
next a
jump SELF loop
variable xdes equal 32-25
variable xave equal xcm(topull,x)
fix mytth topull spring tether 1.5 7 0 0 0
run 200000 # equilibrate
Loop time of 0.804693 on 1 procs for 200000 steps with 6 atoms

fix myat1 all ave/time 10 10 100 v_xave v_xdes file position.32.dat
run 1000000 # data aquisition
Loop time of 4.12247 on 1 procs for 1000000 steps with 6 atoms

unfix myat1
next a
jump SELF loop
variable xdes equal 33-25
variable xave equal xcm(topull,x)
fix mytth topull spring tether 1.5 8 0 0 0
run 200000 # equilibrate
Loop time of 0.81356 on 1 procs for 200000 steps with 6 atoms

fix myat1 all ave/time 10 10 100 v_xave v_xdes file position.33.dat
run 1000000 # data aquisition
Loop time of 4.11249 on 1 procs for 1000000 steps with 6 atoms

unfix myat1
next a
jump SELF loop
variable xdes equal 34-25
variable xave equal xcm(topull,x)
fix mytth topull spring tether 1.5 9 0 0 0
run 200000 # equilibrate
Loop time of 0.810629 on 1 procs for 200000 steps with 6 atoms

fix myat1 all ave/time 10 10 100 v_xave v_xdes file position.34.dat
run 1000000 # data aquisition
Loop time of 4.13699 on 1 procs for 1000000 steps with 6 atoms

unfix myat1
next a
jump SELF loop
variable xdes equal 35-25
variable xave equal xcm(topull,x)
fix mytth topull spring tether 1.5 10 0 0 0
run 200000 # equilibrate
Loop time of 0.815898 on 1 procs for 200000 steps with 6 atoms

fix myat1 all ave/time 10 10 100 v_xave v_xdes file position.35.dat
run 1000000 # data aquisition
Loop time of 4.16893 on 1 procs for 1000000 steps with 6 atoms

unfix myat1
next a
jump SELF loop
variable xdes equal 36-25
variable xave equal xcm(topull,x)
fix mytth topull spring tether 1.5 11 0 0 0
run 200000 # equilibrate
Loop time of 0.812993 on 1 procs for 200000 steps with 6 atoms

fix myat1 all ave/time 10 10 100 v_xave v_xdes file position.36.dat
run 1000000 # data aquisition
Loop time of 4.1529 on 1 procs for 1000000 steps with 6 atoms

unfix myat1
next a
jump SELF loop
variable xdes equal 37-25
variable xave equal xcm(topull,x)
fix mytth topull spring tether 1.5 12 0 0 0
run 200000 # equilibrate
Loop time of 0.816448 on 1 procs for 200000 steps with 6 atoms

fix myat1 all ave/time 10 10 100 v_xave v_xdes file position.37.dat
run 1000000 # data aquisition
Loop time of 4.18151 on 1 procs for 1000000 steps with 6 atoms

unfix myat1
next a
jump SELF loop
variable xdes equal 38-25
variable xave equal xcm(topull,x)
fix mytth topull spring tether 1.5 13 0 0 0
run 200000 # equilibrate
Loop time of 0.816726 on 1 procs for 200000 steps with 6 atoms

fix myat1 all ave/time 10 10 100 v_xave v_xdes file position.38.dat
run 1000000 # data aquisition
Loop time of 4.12794 on 1 procs for 1000000 steps with 6 atoms

unfix myat1
next a
jump SELF loop
variable xdes equal 39-25
variable xave equal xcm(topull,x)
fix mytth topull spring tether 1.5 14 0 0 0
run 200000 # equilibrate
Loop time of 0.806406 on 1 procs for 200000 steps with 6 atoms

fix myat1 all ave/time 10 10 100 v_xave v_xdes file position.39.dat
run 1000000 # data aquisition
Loop time of 4.11441 on 1 procs for 1000000 steps with 6 atoms

unfix myat1
next a
jump SELF loop
variable xdes equal 40-25
variable xave equal xcm(topull,x)
fix mytth topull spring tether 1.5 15 0 0 0
run 200000 # equilibrate
Loop time of 0.803918 on 1 procs for 200000 steps with 6 atoms

fix myat1 all ave/time 10 10 100 v_xave v_xdes file position.40.dat
run 1000000 # data aquisition
Loop time of 4.059 on 1 procs for 1000000 steps with 6 atoms

unfix myat1
next a
jump SELF loop
variable xdes equal 41-25
variable xave equal xcm(topull,x)
fix mytth topull spring tether 1.5 16 0 0 0
run 200000 # equilibrate
Loop time of 0.806922 on 1 procs for 200000 steps with 6 atoms

fix myat1 all ave/time 10 10 100 v_xave v_xdes file position.41.dat
run 1000000 # data aquisition
Loop time of 4.1123 on 1 procs for 1000000 steps with 6 atoms

unfix myat1
next a
jump SELF loop
variable xdes equal 42-25
variable xave equal xcm(topull,x)
fix mytth topull spring tether 1.5 17 0 0 0
run 200000 # equilibrate
Loop time of 0.802868 on 1 procs for 200000 steps with 6 atoms

fix myat1 all ave/time 10 10 100 v_xave v_xdes file position.42.dat
run 1000000 # data aquisition
Loop time of 4.10423 on 1 procs for 1000000 steps with 6 atoms

unfix myat1
next a
jump SELF loop
variable xdes equal 43-25
variable xave equal xcm(topull,x)
fix mytth topull spring tether 1.5 18 0 0 0
run 200000 # equilibrate
Loop time of 0.803221 on 1 procs for 200000 steps with 6 atoms

fix myat1 all ave/time 10 10 100 v_xave v_xdes file position.43.dat
run 1000000 # data aquisition
Loop time of 4.07431 on 1 procs for 1000000 steps with 6 atoms

unfix myat1
next a
jump SELF loop
variable xdes equal 44-25
variable xave equal xcm(topull,x)
fix mytth topull spring tether 1.5 19 0 0 0
run 200000 # equilibrate
Loop time of 0.801561 on 1 procs for 200000 steps with 6 atoms

fix myat1 all ave/time 10 10 100 v_xave v_xdes file position.44.dat
run 1000000 # data aquisition
Loop time of 4.09612 on 1 procs for 1000000 steps with 6 atoms

unfix myat1
next a
jump SELF loop
variable xdes equal 45-25
variable xave equal xcm(topull,x)
fix mytth topull spring tether 1.5 20 0 0 0
run 200000 # equilibrate
Loop time of 0.79978 on 1 procs for 200000 steps with 6 atoms

fix myat1 all ave/time 10 10 100 v_xave v_xdes file position.45.dat
run 1000000 # data aquisition
Loop time of 4.11148 on 1 procs for 1000000 steps with 6 atoms

unfix myat1
next a
jump SELF loop
variable xdes equal 46-25
variable xave equal xcm(topull,x)
fix mytth topull spring tether 1.5 21 0 0 0
run 200000 # equilibrate
Loop time of 0.800109 on 1 procs for 200000 steps with 6 atoms

fix myat1 all ave/time 10 10 100 v_xave v_xdes file position.46.dat
run 1000000 # data aquisition
Loop time of 4.14059 on 1 procs for 1000000 steps with 6 atoms

unfix myat1
next a
jump SELF loop
variable xdes equal 47-25
variable xave equal xcm(topull,x)
fix mytth topull spring tether 1.5 22 0 0 0
run 200000 # equilibrate
Loop time of 0.847613 on 1 procs for 200000 steps with 6 atoms

fix myat1 all ave/time 10 10 100 v_xave v_xdes file position.47.dat
run 1000000 # data aquisition
Loop time of 4.17212 on 1 procs for 1000000 steps with 6 atoms

unfix myat1
next a
jump SELF loop
variable xdes equal 48-25
variable xave equal xcm(topull,x)
fix mytth topull spring tether 1.5 23 0 0 0
run 200000 # equilibrate
Loop time of 0.85094 on 1 procs for 200000 steps with 6 atoms

fix myat1 all ave/time 10 10 100 v_xave v_xdes file position.48.dat
run 1000000 # data aquisition
Loop time of 4.27191 on 1 procs for 1000000 steps with 6 atoms

unfix myat1
next a
jump SELF loop
variable xdes equal 49-25
variable xave equal xcm(topull,x)
fix mytth topull spring tether 1.5 24 0 0 0
run 200000 # equilibrate
Loop time of 0.847488 on 1 procs for 200000 steps with 6 atoms

fix myat1 all ave/time 10 10 100 v_xave v_xdes file position.49.dat
run 1000000 # data aquisition
Loop time of 4.27622 on 1 procs for 1000000 steps with 6 atoms

unfix myat1
next a
jump SELF loop
variable xdes equal 50-25
variable xave equal xcm(topull,x)
fix mytth topull spring tether 1.5 25 0 0 0
run 200000 # equilibrate
Loop time of 0.852692 on 1 procs for 200000 steps with 6 atoms

fix myat1 all ave/time 10 10 100 v_xave v_xdes file position.50.dat
run 1000000 # data aquisition
Loop time of 4.26183 on 1 procs for 1000000 steps with 6 atoms

unfix myat1
next a
jump SELF loop
