LAMMPS (29 Sep 2021 - Update 2)
# LAMMPS input script
# author : Simon Gravelle
# lammpstutorials.github.io

# define a bunch of variables
variable sigma equal 3.405 # Angstrom
variable epsilon equal 0.238 # Kcal/mol
variable U0 equal 10*0.238
variable dlt equal 0.5 # Angstrom
variable x0 equal 5.0 # Angstrom
variable k equal 15 # Kcal/mol/Angstrom^2

# initialise the simulation
units real
atom_style atomic
pair_style lj/cut 3.822 # 2^(1/6) * 3.405 WCA potential
pair_modify shift yes
boundary p p p

# define the system
region myreg block -25 25 -20 20 -20 20
create_box 2 myreg
Created orthogonal box = (-25.000000 -20.000000 -20.000000) to (25.000000 20.000000 20.000000)
create_atoms 2 single 0 0 0
Created 1 atoms
create_atoms 1 random 5 341341 myreg
Created 5 atoms

# settings
mass * 39.948
pair_coeff * * 0.238 3.405
neigh_modify every 1 delay 4 check yes
group topull type 2
1 atoms in group topull

# run
variable U atom 2.38*atan((x+5)/0.5)-2.38*atan((x-5)/0.5)
variable F atom 2.38/((x-5)^2/0.5^2+1)/0.5-2.38/((x+5)^2/0.5^2+1)/0.5
fix pot all addforce v_F 0.0 0.0 energy v_U

fix mynve all nve
fix mylgv all langevin 119.8 119.8 100 1530917
timestep 2.0
thermo 100000
run 2000000
  update every 1 steps, delay 4 steps, check yes
Step Temp E_pair E_mol TotEng Press
0            0            0            0            0            0
Averages over the last 11 of 21 rows, steps 1000000 to 2000000:
Temp E_pair E_mol TotEng Press
144.293 0 0 2.15055 1.22883
Loop time of 8.61554 on 1 procs for 2000000 steps with 6 atoms

reset_timestep 0

dump mydmp all atom 1000000 dump.lammpstrj

variable a loop 50
label loop
variable xdes equal 1-25
variable xave equal xcm(topull,x)
fix mytth topull spring tether 15 -24 0 0 0
run 200000 # equilibrate
Step Temp E_pair E_mol TotEng Press
0    161.99531            0            0    2.4143863    1.3795887
Loop time of 0.868507 on 1 procs for 200000 steps with 6 atoms

fix myat1 all ave/time 10 10 100 v_xave v_xdes file position.1.dat
run 1000000 # data aquisition
Step Temp E_pair E_mol TotEng Press
200000    144.12296            0            0    2.1480159    1.2273837
Averages over the last 6 of 11 rows, steps 700000 to 1200000:
Temp E_pair E_mol TotEng Press
147.798 0 0 2.20279 1.25868
Loop time of 4.42396 on 1 procs for 1000000 steps with 6 atoms

unfix myat1
next a
jump SELF loop
variable xdes equal 2-25
variable xave equal xcm(topull,x)
fix mytth topull spring tether 15 -23 0 0 0
run 200000 # equilibrate
Step Temp E_pair E_mol TotEng Press
1200000    65.386563            0            0   0.97452462   0.55684674
Loop time of 0.864516 on 1 procs for 200000 steps with 6 atoms

fix myat1 all ave/time 10 10 100 v_xave v_xdes file position.2.dat
run 1000000 # data aquisition
Step Temp E_pair E_mol TotEng Press
1400000    139.98234            0            0    2.0863038    1.1921212
Averages over the last 6 of 11 rows, steps 1900000 to 2400000:
Temp E_pair E_mol TotEng Press
125.358 0 0 1.86834 1.06758
Loop time of 4.4638 on 1 procs for 1000000 steps with 6 atoms

unfix myat1
next a
jump SELF loop
variable xdes equal 3-25
variable xave equal xcm(topull,x)
fix mytth topull spring tether 15 -22 0 0 0
run 200000 # equilibrate
Step Temp E_pair E_mol TotEng Press
2400000    151.86282            0            0    2.2633711    1.2932981
Loop time of 0.881181 on 1 procs for 200000 steps with 6 atoms

fix myat1 all ave/time 10 10 100 v_xave v_xdes file position.3.dat
run 1000000 # data aquisition
Step Temp E_pair E_mol TotEng Press
2600000    162.59625            0            0    2.4233428    1.3847064
Averages over the last 6 of 11 rows, steps 3100000 to 3600000:
Temp E_pair E_mol TotEng Press
151.874 0 0 2.26353 1.29339
Loop time of 4.48628 on 1 procs for 1000000 steps with 6 atoms

unfix myat1
next a
jump SELF loop
variable xdes equal 4-25
variable xave equal xcm(topull,x)
fix mytth topull spring tether 15 -21 0 0 0
run 200000 # equilibrate
Step Temp E_pair E_mol TotEng Press
3600000    247.55202            0            0    3.6895278    2.1082089
Loop time of 0.873433 on 1 procs for 200000 steps with 6 atoms

fix myat1 all ave/time 10 10 100 v_xave v_xdes file position.4.dat
run 1000000 # data aquisition
Step Temp E_pair E_mol TotEng Press
3800000     226.3513            0            0    3.3735511    1.9276588
Averages over the last 6 of 11 rows, steps 4300000 to 4800000:
Temp E_pair E_mol TotEng Press
145.644 0 0 2.17069 1.24034
Loop time of 4.43674 on 1 procs for 1000000 steps with 6 atoms

unfix myat1
next a
jump SELF loop
variable xdes equal 5-25
variable xave equal xcm(topull,x)
fix mytth topull spring tether 15 -20 0 0 0
run 200000 # equilibrate
Step Temp E_pair E_mol TotEng Press
4800000     178.4506            0            0    2.6596367    1.5197256
Loop time of 0.874902 on 1 procs for 200000 steps with 6 atoms

fix myat1 all ave/time 10 10 100 v_xave v_xdes file position.5.dat
run 1000000 # data aquisition
Step Temp E_pair E_mol TotEng Press
5000000    147.04707            0            0    2.1915969     1.252286
Averages over the last 6 of 11 rows, steps 5500000 to 6000000:
Temp E_pair E_mol TotEng Press
147.829 0 0 2.20324 1.25894
Loop time of 4.42526 on 1 procs for 1000000 steps with 6 atoms

unfix myat1
next a
jump SELF loop
variable xdes equal 6-25
variable xave equal xcm(topull,x)
fix mytth topull spring tether 15 -19 0 0 0
run 200000 # equilibrate
Step Temp E_pair E_mol TotEng Press
6000000    94.234886            0            0    1.4044815   0.80252557
Loop time of 0.865394 on 1 procs for 200000 steps with 6 atoms

fix myat1 all ave/time 10 10 100 v_xave v_xdes file position.6.dat
run 1000000 # data aquisition
Step Temp E_pair E_mol TotEng Press
6200000    94.382863            0            0    1.4066869   0.80378578
Averages over the last 6 of 11 rows, steps 6700000 to 7200000:
Temp E_pair E_mol TotEng Press
164.598 0 0 2.45318 1.40175
Loop time of 4.41183 on 1 procs for 1000000 steps with 6 atoms

unfix myat1
next a
jump SELF loop
variable xdes equal 7-25
variable xave equal xcm(topull,x)
fix mytth topull spring tether 15 -18 0 0 0
run 200000 # equilibrate
Step Temp E_pair E_mol TotEng Press
7200000    162.79173            0            0    2.4262561    1.3863711
Loop time of 0.859579 on 1 procs for 200000 steps with 6 atoms

fix myat1 all ave/time 10 10 100 v_xave v_xdes file position.7.dat
run 1000000 # data aquisition
Step Temp E_pair E_mol TotEng Press
7400000    134.09247            0            0    1.9985209    1.1419618
Averages over the last 6 of 11 rows, steps 7900000 to 8400000:
Temp E_pair E_mol TotEng Press
107.185 0 0 1.59749 0.912812
Loop time of 4.44353 on 1 procs for 1000000 steps with 6 atoms

unfix myat1
next a
jump SELF loop
variable xdes equal 8-25
variable xave equal xcm(topull,x)
fix mytth topull spring tether 15 -17 0 0 0
run 200000 # equilibrate
Step Temp E_pair E_mol TotEng Press
8400000    97.107866            0            0    1.4473005   0.82699252
Loop time of 0.873214 on 1 procs for 200000 steps with 6 atoms

fix myat1 all ave/time 10 10 100 v_xave v_xdes file position.8.dat
run 1000000 # data aquisition
Step Temp E_pair E_mol TotEng Press
8600000    148.74382            0            0    2.2168853    1.2667359
Averages over the last 6 of 11 rows, steps 9100000 to 9600000:
Temp E_pair E_mol TotEng Press
175.425 0.00496915 0 2.61951 1.55913
Loop time of 4.44866 on 1 procs for 1000000 steps with 6 atoms

unfix myat1
next a
jump SELF loop
variable xdes equal 9-25
variable xave equal xcm(topull,x)
fix mytth topull spring tether 15 -16 0 0 0
run 200000 # equilibrate
Step Temp E_pair E_mol TotEng Press
9600000    208.00894            0            0    3.1001758    1.7714512
Loop time of 0.868307 on 1 procs for 200000 steps with 6 atoms

fix myat1 all ave/time 10 10 100 v_xave v_xdes file position.9.dat
run 1000000 # data aquisition
Step Temp E_pair E_mol TotEng Press
9800000    138.72822            0            0    2.0676123    1.1814408
Averages over the last 6 of 11 rows, steps 10300000 to 10800000:
Temp E_pair E_mol TotEng Press
195.251 0.000135257 0 2.91016 1.67121
Loop time of 4.44618 on 1 procs for 1000000 steps with 6 atoms

unfix myat1
next a
jump SELF loop
variable xdes equal 10-25
variable xave equal xcm(topull,x)
fix mytth topull spring tether 15 -15 0 0 0
run 200000 # equilibrate
Step Temp E_pair E_mol TotEng Press
10800000    263.57745            0            0    3.9283716    2.2446851
Loop time of 0.866878 on 1 procs for 200000 steps with 6 atoms

fix myat1 all ave/time 10 10 100 v_xave v_xdes file position.10.dat
run 1000000 # data aquisition
Step Temp E_pair E_mol TotEng Press
11000000    150.76384            0            0    2.2469919     1.283939
Averages over the last 6 of 11 rows, steps 11500000 to 12000000:
Temp E_pair E_mol TotEng Press
170.427 0 0 2.54006 1.4514
Loop time of 4.4655 on 1 procs for 1000000 steps with 6 atoms

unfix myat1
next a
jump SELF loop
variable xdes equal 11-25
variable xave equal xcm(topull,x)
fix mytth topull spring tether 15 -14 0 0 0
run 200000 # equilibrate
Step Temp E_pair E_mol TotEng Press
12000000    137.67157            0            0     2.051864    1.1724422
Loop time of 0.87353 on 1 procs for 200000 steps with 6 atoms

fix myat1 all ave/time 10 10 100 v_xave v_xdes file position.11.dat
run 1000000 # data aquisition
Step Temp E_pair E_mol TotEng Press
12200000     144.6904            0            0     2.156473    1.2322161
Averages over the last 6 of 11 rows, steps 12700000 to 13200000:
Temp E_pair E_mol TotEng Press
123.209 0 0 1.83631 1.04928
Loop time of 4.46313 on 1 procs for 1000000 steps with 6 atoms

unfix myat1
next a
jump SELF loop
variable xdes equal 12-25
variable xave equal xcm(topull,x)
fix mytth topull spring tether 15 -13 0 0 0
run 200000 # equilibrate
Step Temp E_pair E_mol TotEng Press
13200000    126.31583            0            0    1.8826175    1.0757341
Loop time of 0.878874 on 1 procs for 200000 steps with 6 atoms

fix myat1 all ave/time 10 10 100 v_xave v_xdes file position.12.dat
run 1000000 # data aquisition
Step Temp E_pair E_mol TotEng Press
13400000    137.35483            0            0    2.0471433    1.1697448
Averages over the last 6 of 11 rows, steps 13900000 to 14400000:
Temp E_pair E_mol TotEng Press
186.945 0 0 2.78624 1.59207
Loop time of 4.48282 on 1 procs for 1000000 steps with 6 atoms

unfix myat1
next a
jump SELF loop
variable xdes equal 13-25
variable xave equal xcm(topull,x)
fix mytth topull spring tether 15 -12 0 0 0
run 200000 # equilibrate
Step Temp E_pair E_mol TotEng Press
14400000    185.23214            0            0    2.7607091    1.5774787
Loop time of 0.868711 on 1 procs for 200000 steps with 6 atoms

fix myat1 all ave/time 10 10 100 v_xave v_xdes file position.13.dat
run 1000000 # data aquisition
Step Temp E_pair E_mol TotEng Press
14600000    161.39499            0            0    2.4054391    1.3744762
Averages over the last 6 of 11 rows, steps 15100000 to 15600000:
Temp E_pair E_mol TotEng Press
158.303 0 0 2.35936 1.34815
Loop time of 4.51457 on 1 procs for 1000000 steps with 6 atoms

unfix myat1
next a
jump SELF loop
variable xdes equal 14-25
variable xave equal xcm(topull,x)
fix mytth topull spring tether 15 -11 0 0 0
run 200000 # equilibrate
Step Temp E_pair E_mol TotEng Press
15600000     120.7073            0            0    1.7990277    1.0279707
Loop time of 0.870928 on 1 procs for 200000 steps with 6 atoms

fix myat1 all ave/time 10 10 100 v_xave v_xdes file position.14.dat
run 1000000 # data aquisition
Step Temp E_pair E_mol TotEng Press
15800000    144.61281            0            0    2.1553166    1.2315554
Averages over the last 6 of 11 rows, steps 16300000 to 16800000:
Temp E_pair E_mol TotEng Press
142.413 0 0 2.12253 1.21282
Loop time of 4.41994 on 1 procs for 1000000 steps with 6 atoms

unfix myat1
next a
jump SELF loop
variable xdes equal 15-25
variable xave equal xcm(topull,x)
fix mytth topull spring tether 15 -10 0 0 0
run 200000 # equilibrate
Step Temp E_pair E_mol TotEng Press
16800000    130.02639            0            0    1.9379198    1.1073341
Loop time of 0.878392 on 1 procs for 200000 steps with 6 atoms

fix myat1 all ave/time 10 10 100 v_xave v_xdes file position.15.dat
run 1000000 # data aquisition
Step Temp E_pair E_mol TotEng Press
17000000    123.76519            0            0    1.8446027    1.0540123
Averages over the last 6 of 11 rows, steps 17500000 to 18000000:
Temp E_pair E_mol TotEng Press
162.955 0.000538596 0 2.42923 1.40545
Loop time of 4.47891 on 1 procs for 1000000 steps with 6 atoms

unfix myat1
next a
jump SELF loop
variable xdes equal 16-25
variable xave equal xcm(topull,x)
fix mytth topull spring tether 15 -9 0 0 0
run 200000 # equilibrate
Step Temp E_pair E_mol TotEng Press
18000000    170.74989            0            0    2.5448649    1.4541446
Loop time of 0.862616 on 1 procs for 200000 steps with 6 atoms

fix myat1 all ave/time 10 10 100 v_xave v_xdes file position.16.dat
run 1000000 # data aquisition
Step Temp E_pair E_mol TotEng Press
18200000    70.729741            0            0    1.0541596   0.60235045
Averages over the last 6 of 11 rows, steps 18700000 to 19200000:
Temp E_pair E_mol TotEng Press
167.784 0 0 2.50065 1.42888
Loop time of 4.52578 on 1 procs for 1000000 steps with 6 atoms

unfix myat1
next a
jump SELF loop
variable xdes equal 17-25
variable xave equal xcm(topull,x)
fix mytth topull spring tether 15 -8 0 0 0
run 200000 # equilibrate
Step Temp E_pair E_mol TotEng Press
19200000    76.751912            0            0    1.1439144   0.65363662
Loop time of 0.875875 on 1 procs for 200000 steps with 6 atoms

fix myat1 all ave/time 10 10 100 v_xave v_xdes file position.17.dat
run 1000000 # data aquisition
Step Temp E_pair E_mol TotEng Press
19400000    51.248528            0            0   0.76381063   0.43644404
Averages over the last 6 of 11 rows, steps 19900000 to 20400000:
Temp E_pair E_mol TotEng Press
157.872 0.000849142 0 2.35378 1.36728
Loop time of 4.48295 on 1 procs for 1000000 steps with 6 atoms

unfix myat1
next a
jump SELF loop
variable xdes equal 18-25
variable xave equal xcm(topull,x)
fix mytth topull spring tether 15 -7 0 0 0
run 200000 # equilibrate
Step Temp E_pair E_mol TotEng Press
20400000    197.33691            0            0    2.9411192    1.6805657
Loop time of 0.878365 on 1 procs for 200000 steps with 6 atoms

fix myat1 all ave/time 10 10 100 v_xave v_xdes file position.18.dat
run 1000000 # data aquisition
Step Temp E_pair E_mol TotEng Press
20600000    163.84162            0            0    2.4419037    1.3953122
Averages over the last 6 of 11 rows, steps 21100000 to 21600000:
Temp E_pair E_mol TotEng Press
169.215 0.0269209 0 2.54891 1.6454
Loop time of 4.50095 on 1 procs for 1000000 steps with 6 atoms

unfix myat1
next a
jump SELF loop
variable xdes equal 19-25
variable xave equal xcm(topull,x)
fix mytth topull spring tether 15 -6 0 0 0
run 200000 # equilibrate
Step Temp E_pair E_mol TotEng Press
21600000        153.4            0            0    2.2862813     1.306389
Loop time of 0.869947 on 1 procs for 200000 steps with 6 atoms

fix myat1 all ave/time 10 10 100 v_xave v_xdes file position.19.dat
run 1000000 # data aquisition
Step Temp E_pair E_mol TotEng Press
21800000    142.79781            0            0    2.1282658    1.2160984
Averages over the last 6 of 11 rows, steps 22300000 to 22800000:
Temp E_pair E_mol TotEng Press
132.458 0 0 1.97417 1.12805
Loop time of 4.44457 on 1 procs for 1000000 steps with 6 atoms

unfix myat1
next a
jump SELF loop
variable xdes equal 20-25
variable xave equal xcm(topull,x)
fix mytth topull spring tether 15 -5 0 0 0
run 200000 # equilibrate
Step Temp E_pair E_mol TotEng Press
22800000    144.90368            0            0    2.1596517    1.2340325
Loop time of 0.872196 on 1 procs for 200000 steps with 6 atoms

fix myat1 all ave/time 10 10 100 v_xave v_xdes file position.20.dat
run 1000000 # data aquisition
Loop time of 4.44226 on 1 procs for 1000000 steps with 6 atoms

unfix myat1
next a
jump SELF loop
variable xdes equal 21-25
variable xave equal xcm(topull,x)
fix mytth topull spring tether 15 -4 0 0 0
run 200000 # equilibrate
Loop time of 0.860591 on 1 procs for 200000 steps with 6 atoms

fix myat1 all ave/time 10 10 100 v_xave v_xdes file position.21.dat
run 1000000 # data aquisition
Loop time of 4.45582 on 1 procs for 1000000 steps with 6 atoms

unfix myat1
next a
jump SELF loop
variable xdes equal 22-25
variable xave equal xcm(topull,x)
fix mytth topull spring tether 15 -3 0 0 0
run 200000 # equilibrate
Loop time of 0.882924 on 1 procs for 200000 steps with 6 atoms

fix myat1 all ave/time 10 10 100 v_xave v_xdes file position.22.dat
run 1000000 # data aquisition
Loop time of 4.49145 on 1 procs for 1000000 steps with 6 atoms

unfix myat1
next a
jump SELF loop
variable xdes equal 23-25
variable xave equal xcm(topull,x)
fix mytth topull spring tether 15 -2 0 0 0
run 200000 # equilibrate
Loop time of 0.866744 on 1 procs for 200000 steps with 6 atoms

fix myat1 all ave/time 10 10 100 v_xave v_xdes file position.23.dat
run 1000000 # data aquisition
Loop time of 4.43533 on 1 procs for 1000000 steps with 6 atoms

unfix myat1
next a
jump SELF loop
variable xdes equal 24-25
variable xave equal xcm(topull,x)
fix mytth topull spring tether 15 -1 0 0 0
run 200000 # equilibrate
Loop time of 0.867822 on 1 procs for 200000 steps with 6 atoms

fix myat1 all ave/time 10 10 100 v_xave v_xdes file position.24.dat
run 1000000 # data aquisition
Loop time of 4.38628 on 1 procs for 1000000 steps with 6 atoms

unfix myat1
next a
jump SELF loop
variable xdes equal 25-25
variable xave equal xcm(topull,x)
fix mytth topull spring tether 15 0 0 0 0
run 200000 # equilibrate
Loop time of 0.859966 on 1 procs for 200000 steps with 6 atoms

fix myat1 all ave/time 10 10 100 v_xave v_xdes file position.25.dat
run 1000000 # data aquisition
Loop time of 4.40059 on 1 procs for 1000000 steps with 6 atoms

unfix myat1
next a
jump SELF loop
variable xdes equal 26-25
variable xave equal xcm(topull,x)
fix mytth topull spring tether 15 1 0 0 0
run 200000 # equilibrate
Loop time of 0.861149 on 1 procs for 200000 steps with 6 atoms

fix myat1 all ave/time 10 10 100 v_xave v_xdes file position.26.dat
run 1000000 # data aquisition
Loop time of 4.37823 on 1 procs for 1000000 steps with 6 atoms

unfix myat1
next a
jump SELF loop
variable xdes equal 27-25
variable xave equal xcm(topull,x)
fix mytth topull spring tether 15 2 0 0 0
run 200000 # equilibrate
Loop time of 0.859633 on 1 procs for 200000 steps with 6 atoms

fix myat1 all ave/time 10 10 100 v_xave v_xdes file position.27.dat
run 1000000 # data aquisition
Loop time of 4.42242 on 1 procs for 1000000 steps with 6 atoms

unfix myat1
next a
jump SELF loop
variable xdes equal 28-25
variable xave equal xcm(topull,x)
fix mytth topull spring tether 15 3 0 0 0
run 200000 # equilibrate
Loop time of 0.860078 on 1 procs for 200000 steps with 6 atoms

fix myat1 all ave/time 10 10 100 v_xave v_xdes file position.28.dat
run 1000000 # data aquisition
Loop time of 4.50437 on 1 procs for 1000000 steps with 6 atoms

unfix myat1
next a
jump SELF loop
variable xdes equal 29-25
variable xave equal xcm(topull,x)
fix mytth topull spring tether 15 4 0 0 0
run 200000 # equilibrate
Loop time of 0.881428 on 1 procs for 200000 steps with 6 atoms

fix myat1 all ave/time 10 10 100 v_xave v_xdes file position.29.dat
run 1000000 # data aquisition
Loop time of 4.48158 on 1 procs for 1000000 steps with 6 atoms

unfix myat1
next a
jump SELF loop
variable xdes equal 30-25
variable xave equal xcm(topull,x)
fix mytth topull spring tether 15 5 0 0 0
run 200000 # equilibrate
Loop time of 0.861781 on 1 procs for 200000 steps with 6 atoms

fix myat1 all ave/time 10 10 100 v_xave v_xdes file position.30.dat
run 1000000 # data aquisition
Loop time of 4.43014 on 1 procs for 1000000 steps with 6 atoms

unfix myat1
next a
jump SELF loop
variable xdes equal 31-25
variable xave equal xcm(topull,x)
fix mytth topull spring tether 15 6 0 0 0
run 200000 # equilibrate
Loop time of 0.869212 on 1 procs for 200000 steps with 6 atoms

fix myat1 all ave/time 10 10 100 v_xave v_xdes file position.31.dat
run 1000000 # data aquisition
Loop time of 4.43787 on 1 procs for 1000000 steps with 6 atoms

unfix myat1
next a
jump SELF loop
variable xdes equal 32-25
variable xave equal xcm(topull,x)
fix mytth topull spring tether 15 7 0 0 0
run 200000 # equilibrate
Loop time of 0.864436 on 1 procs for 200000 steps with 6 atoms

fix myat1 all ave/time 10 10 100 v_xave v_xdes file position.32.dat
run 1000000 # data aquisition
Loop time of 4.42268 on 1 procs for 1000000 steps with 6 atoms

unfix myat1
next a
jump SELF loop
variable xdes equal 33-25
variable xave equal xcm(topull,x)
fix mytth topull spring tether 15 8 0 0 0
run 200000 # equilibrate
Loop time of 0.860245 on 1 procs for 200000 steps with 6 atoms

fix myat1 all ave/time 10 10 100 v_xave v_xdes file position.33.dat
run 1000000 # data aquisition
Loop time of 4.38231 on 1 procs for 1000000 steps with 6 atoms

unfix myat1
next a
jump SELF loop
variable xdes equal 34-25
variable xave equal xcm(topull,x)
fix mytth topull spring tether 15 9 0 0 0
run 200000 # equilibrate
Loop time of 0.942478 on 1 procs for 200000 steps with 6 atoms

fix myat1 all ave/time 10 10 100 v_xave v_xdes file position.34.dat
run 1000000 # data aquisition
Loop time of 4.53972 on 1 procs for 1000000 steps with 6 atoms

unfix myat1
next a
jump SELF loop
variable xdes equal 35-25
variable xave equal xcm(topull,x)
fix mytth topull spring tether 15 10 0 0 0
run 200000 # equilibrate
Loop time of 0.842315 on 1 procs for 200000 steps with 6 atoms

fix myat1 all ave/time 10 10 100 v_xave v_xdes file position.35.dat
run 1000000 # data aquisition
Loop time of 4.31113 on 1 procs for 1000000 steps with 6 atoms

unfix myat1
next a
jump SELF loop
variable xdes equal 36-25
variable xave equal xcm(topull,x)
fix mytth topull spring tether 15 11 0 0 0
run 200000 # equilibrate
Loop time of 0.844607 on 1 procs for 200000 steps with 6 atoms

fix myat1 all ave/time 10 10 100 v_xave v_xdes file position.36.dat
run 1000000 # data aquisition
Loop time of 4.50655 on 1 procs for 1000000 steps with 6 atoms

unfix myat1
next a
jump SELF loop
variable xdes equal 37-25
variable xave equal xcm(topull,x)
fix mytth topull spring tether 15 12 0 0 0
run 200000 # equilibrate
Loop time of 0.86589 on 1 procs for 200000 steps with 6 atoms

fix myat1 all ave/time 10 10 100 v_xave v_xdes file position.37.dat
run 1000000 # data aquisition
Loop time of 4.41949 on 1 procs for 1000000 steps with 6 atoms

unfix myat1
next a
jump SELF loop
variable xdes equal 38-25
variable xave equal xcm(topull,x)
fix mytth topull spring tether 15 13 0 0 0
run 200000 # equilibrate
Loop time of 0.855271 on 1 procs for 200000 steps with 6 atoms

fix myat1 all ave/time 10 10 100 v_xave v_xdes file position.38.dat
run 1000000 # data aquisition
Loop time of 4.3069 on 1 procs for 1000000 steps with 6 atoms

unfix myat1
next a
jump SELF loop
variable xdes equal 39-25
variable xave equal xcm(topull,x)
fix mytth topull spring tether 15 14 0 0 0
run 200000 # equilibrate
Loop time of 0.853685 on 1 procs for 200000 steps with 6 atoms

fix myat1 all ave/time 10 10 100 v_xave v_xdes file position.39.dat
run 1000000 # data aquisition
Loop time of 4.34647 on 1 procs for 1000000 steps with 6 atoms

unfix myat1
next a
jump SELF loop
variable xdes equal 40-25
variable xave equal xcm(topull,x)
fix mytth topull spring tether 15 15 0 0 0
run 200000 # equilibrate
Loop time of 0.860043 on 1 procs for 200000 steps with 6 atoms

fix myat1 all ave/time 10 10 100 v_xave v_xdes file position.40.dat
run 1000000 # data aquisition
Loop time of 4.37816 on 1 procs for 1000000 steps with 6 atoms

unfix myat1
next a
jump SELF loop
variable xdes equal 41-25
variable xave equal xcm(topull,x)
fix mytth topull spring tether 15 16 0 0 0
run 200000 # equilibrate
Loop time of 0.856435 on 1 procs for 200000 steps with 6 atoms

fix myat1 all ave/time 10 10 100 v_xave v_xdes file position.41.dat
run 1000000 # data aquisition
Loop time of 4.28594 on 1 procs for 1000000 steps with 6 atoms

unfix myat1
next a
jump SELF loop
variable xdes equal 42-25
variable xave equal xcm(topull,x)
fix mytth topull spring tether 15 17 0 0 0
run 200000 # equilibrate
Loop time of 0.850795 on 1 procs for 200000 steps with 6 atoms

fix myat1 all ave/time 10 10 100 v_xave v_xdes file position.42.dat
run 1000000 # data aquisition
Loop time of 4.261 on 1 procs for 1000000 steps with 6 atoms

unfix myat1
next a
jump SELF loop
variable xdes equal 43-25
variable xave equal xcm(topull,x)
fix mytth topull spring tether 15 18 0 0 0
run 200000 # equilibrate
Loop time of 0.854291 on 1 procs for 200000 steps with 6 atoms

fix myat1 all ave/time 10 10 100 v_xave v_xdes file position.43.dat
run 1000000 # data aquisition
Loop time of 4.32151 on 1 procs for 1000000 steps with 6 atoms

unfix myat1
next a
jump SELF loop
variable xdes equal 44-25
variable xave equal xcm(topull,x)
fix mytth topull spring tether 15 19 0 0 0
run 200000 # equilibrate
Loop time of 0.855722 on 1 procs for 200000 steps with 6 atoms

fix myat1 all ave/time 10 10 100 v_xave v_xdes file position.44.dat
run 1000000 # data aquisition
Loop time of 4.31814 on 1 procs for 1000000 steps with 6 atoms

unfix myat1
next a
jump SELF loop
variable xdes equal 45-25
variable xave equal xcm(topull,x)
fix mytth topull spring tether 15 20 0 0 0
run 200000 # equilibrate
Loop time of 0.858416 on 1 procs for 200000 steps with 6 atoms

fix myat1 all ave/time 10 10 100 v_xave v_xdes file position.45.dat
run 1000000 # data aquisition
Loop time of 4.37494 on 1 procs for 1000000 steps with 6 atoms

unfix myat1
next a
jump SELF loop
variable xdes equal 46-25
variable xave equal xcm(topull,x)
fix mytth topull spring tether 15 21 0 0 0
run 200000 # equilibrate
Loop time of 0.856892 on 1 procs for 200000 steps with 6 atoms

fix myat1 all ave/time 10 10 100 v_xave v_xdes file position.46.dat
run 1000000 # data aquisition
Loop time of 4.32877 on 1 procs for 1000000 steps with 6 atoms

unfix myat1
next a
jump SELF loop
variable xdes equal 47-25
variable xave equal xcm(topull,x)
fix mytth topull spring tether 15 22 0 0 0
run 200000 # equilibrate
Loop time of 0.847151 on 1 procs for 200000 steps with 6 atoms

fix myat1 all ave/time 10 10 100 v_xave v_xdes file position.47.dat
run 1000000 # data aquisition
Loop time of 4.28043 on 1 procs for 1000000 steps with 6 atoms

unfix myat1
next a
jump SELF loop
variable xdes equal 48-25
variable xave equal xcm(topull,x)
fix mytth topull spring tether 15 23 0 0 0
run 200000 # equilibrate
Loop time of 0.853748 on 1 procs for 200000 steps with 6 atoms

fix myat1 all ave/time 10 10 100 v_xave v_xdes file position.48.dat
run 1000000 # data aquisition
Loop time of 4.28844 on 1 procs for 1000000 steps with 6 atoms

unfix myat1
next a
jump SELF loop
variable xdes equal 49-25
variable xave equal xcm(topull,x)
fix mytth topull spring tether 15 24 0 0 0
run 200000 # equilibrate
Loop time of 0.853581 on 1 procs for 200000 steps with 6 atoms

fix myat1 all ave/time 10 10 100 v_xave v_xdes file position.49.dat
run 1000000 # data aquisition
Loop time of 4.37166 on 1 procs for 1000000 steps with 6 atoms

unfix myat1
next a
jump SELF loop
variable xdes equal 50-25
variable xave equal xcm(topull,x)
fix mytth topull spring tether 15 25 0 0 0
run 200000 # equilibrate
Loop time of 0.856017 on 1 procs for 200000 steps with 6 atoms

fix myat1 all ave/time 10 10 100 v_xave v_xdes file position.50.dat
run 1000000 # data aquisition
Loop time of 4.29442 on 1 procs for 1000000 steps with 6 atoms

unfix myat1
next a
jump SELF loop
