LAMMPS (29 Sep 2021 - Update 2)
# LAMMPS input script
# author : Simon Gravelle
# lammpstutorials.github.io

# define a bunch of variables
variable sigma equal 3.405 # Angstrom
variable epsilon equal 0.238 # Kcal/mol
variable U0 equal 10*0.238
variable dlt equal 0.5 # Angstrom
variable x0 equal 5.0 # Angstrom
variable k equal 0.15 # Kcal/mol/Angstrom^2

# initialise the simulation
units real
atom_style atomic
pair_style lj/cut 3.822 # 2^(1/6) * 3.405 WCA potential
pair_modify shift yes
boundary p p p

# define the system
region myreg block -25 25 -20 20 -20 20
create_box 2 myreg
Created orthogonal box = (-25.000000 -20.000000 -20.000000) to (25.000000 20.000000 20.000000)
create_atoms 2 single 0 0 0
Created 1 atoms
create_atoms 1 random 5 341341 myreg
Created 5 atoms

# settings
mass * 39.948
pair_coeff * * 0.238 3.405
neigh_modify every 1 delay 4 check yes
group topull type 2
1 atoms in group topull

# run
variable U atom 2.38*atan((x+5)/0.5)-2.38*atan((x-5)/0.5)
variable F atom 2.38/((x-5)^2/0.5^2+1)/0.5-2.38/((x+5)^2/0.5^2+1)/0.5
fix pot all addforce v_F 0.0 0.0 energy v_U

fix mynve all nve
fix mylgv all langevin 119.8 119.8 100 1530917
timestep 2.0
thermo 100000
run 2000000
  update every 1 steps, delay 4 steps, check yes
Step Temp E_pair E_mol TotEng Press
0            0            0            0            0            0
Averages over the last 11 of 21 rows, steps 1000000 to 2000000:
Temp E_pair E_mol TotEng Press
144.293 0 0 2.15055 1.22883
Loop time of 7.83003 on 1 procs for 2000000 steps with 6 atoms

reset_timestep 0

dump mydmp all atom 1000000 dump.lammpstrj

variable a loop 50
label loop
variable xdes equal 1-25
variable xave equal xcm(topull,x)
fix mytth topull spring tether 0.15 -24 0 0 0
run 200000 # equilibrate
Step Temp E_pair E_mol TotEng Press
0    161.99531            0            0    2.4143863    1.3795887
Loop time of 0.776351 on 1 procs for 200000 steps with 6 atoms

fix myat1 all ave/time 10 10 100 v_xave v_xdes file position.1.dat
run 1000000 # data aquisition
Step Temp E_pair E_mol TotEng Press
200000     145.2448            0            0    2.1647358    1.2369375
Averages over the last 6 of 11 rows, steps 700000 to 1200000:
Temp E_pair E_mol TotEng Press
152.456 0 0 2.27221 1.29835
Loop time of 3.94936 on 1 procs for 1000000 steps with 6 atoms

unfix myat1
next a
jump SELF loop
variable xdes equal 2-25
variable xave equal xcm(topull,x)
fix mytth topull spring tether 0.15 -23 0 0 0
run 200000 # equilibrate
Step Temp E_pair E_mol TotEng Press
1200000    67.547294            0            0    1.0067283   0.57524801
Loop time of 0.77326 on 1 procs for 200000 steps with 6 atoms

fix myat1 all ave/time 10 10 100 v_xave v_xdes file position.2.dat
run 1000000 # data aquisition
Step Temp E_pair E_mol TotEng Press
1400000     129.8789            0            0    1.9357216     1.106078
Averages over the last 6 of 11 rows, steps 1900000 to 2400000:
Temp E_pair E_mol TotEng Press
143.554 0 0 2.13954 1.22254
Loop time of 4.28036 on 1 procs for 1000000 steps with 6 atoms

unfix myat1
next a
jump SELF loop
variable xdes equal 3-25
variable xave equal xcm(topull,x)
fix mytth topull spring tether 0.15 -22 0 0 0
run 200000 # equilibrate
Step Temp E_pair E_mol TotEng Press
2400000    172.90482            0            0    2.5769821    1.4724965
Loop time of 0.871266 on 1 procs for 200000 steps with 6 atoms

fix myat1 all ave/time 10 10 100 v_xave v_xdes file position.3.dat
run 1000000 # data aquisition
Step Temp E_pair E_mol TotEng Press
2600000    137.31248            0            0    2.0465121    1.1693841
Averages over the last 6 of 11 rows, steps 3100000 to 3600000:
Temp E_pair E_mol TotEng Press
150.965 0.00538861 0 2.25538 1.35425
Loop time of 4.19164 on 1 procs for 1000000 steps with 6 atoms

unfix myat1
next a
jump SELF loop
variable xdes equal 4-25
variable xave equal xcm(topull,x)
fix mytth topull spring tether 0.15 -21 0 0 0
run 200000 # equilibrate
Step Temp E_pair E_mol TotEng Press
3600000    193.85348            0            0     2.889202       1.6509
Loop time of 0.809865 on 1 procs for 200000 steps with 6 atoms

fix myat1 all ave/time 10 10 100 v_xave v_xdes file position.4.dat
run 1000000 # data aquisition
Step Temp E_pair E_mol TotEng Press
3800000    209.27727            0            0    3.1190789    1.7822525
Averages over the last 6 of 11 rows, steps 4300000 to 4800000:
Temp E_pair E_mol TotEng Press
135.218 0 0 2.0153 1.15155
Loop time of 4.18681 on 1 procs for 1000000 steps with 6 atoms

unfix myat1
next a
jump SELF loop
variable xdes equal 5-25
variable xave equal xcm(topull,x)
fix mytth topull spring tether 0.15 -20 0 0 0
run 200000 # equilibrate
Step Temp E_pair E_mol TotEng Press
4800000    172.69352            0            0    2.5738328     1.470697
Loop time of 0.796601 on 1 procs for 200000 steps with 6 atoms

fix myat1 all ave/time 10 10 100 v_xave v_xdes file position.5.dat
run 1000000 # data aquisition
Step Temp E_pair E_mol TotEng Press
5000000    158.58068            0            0    2.3634944    1.3505089
Averages over the last 6 of 11 rows, steps 5500000 to 6000000:
Temp E_pair E_mol TotEng Press
151.402 0 0 2.25651 1.28938
Loop time of 4.20046 on 1 procs for 1000000 steps with 6 atoms

unfix myat1
next a
jump SELF loop
variable xdes equal 6-25
variable xave equal xcm(topull,x)
fix mytth topull spring tether 0.15 -19 0 0 0
run 200000 # equilibrate
Step Temp E_pair E_mol TotEng Press
6000000    93.495361            0            0    1.3934596   0.79622761
Loop time of 0.810192 on 1 procs for 200000 steps with 6 atoms

fix myat1 all ave/time 10 10 100 v_xave v_xdes file position.6.dat
run 1000000 # data aquisition
Step Temp E_pair E_mol TotEng Press
6200000    116.01741            0            0    1.7291294    0.9880305
Averages over the last 6 of 11 rows, steps 6700000 to 7200000:
Temp E_pair E_mol TotEng Press
172.808 0 0 2.57554 1.47168
Loop time of 4.28341 on 1 procs for 1000000 steps with 6 atoms

unfix myat1
next a
jump SELF loop
variable xdes equal 7-25
variable xave equal xcm(topull,x)
fix mytth topull spring tether 0.15 -18 0 0 0
run 200000 # equilibrate
Step Temp E_pair E_mol TotEng Press
7200000    174.92551            0            0    2.6070986    1.4897051
Loop time of 0.819659 on 1 procs for 200000 steps with 6 atoms

fix myat1 all ave/time 10 10 100 v_xave v_xdes file position.7.dat
run 1000000 # data aquisition
Step Temp E_pair E_mol TotEng Press
7400000    137.86238            0            0    2.0547078    1.1740671
Averages over the last 6 of 11 rows, steps 7900000 to 8400000:
Temp E_pair E_mol TotEng Press
104.144 0 0 1.55217 0.886915
Loop time of 4.19537 on 1 procs for 1000000 steps with 6 atoms

unfix myat1
next a
jump SELF loop
variable xdes equal 8-25
variable xave equal xcm(topull,x)
fix mytth topull spring tether 0.15 -17 0 0 0
run 200000 # equilibrate
Step Temp E_pair E_mol TotEng Press
8400000    86.754463            0            0    1.2929929    0.7388206
Loop time of 0.81067 on 1 procs for 200000 steps with 6 atoms

fix myat1 all ave/time 10 10 100 v_xave v_xdes file position.8.dat
run 1000000 # data aquisition
Step Temp E_pair E_mol TotEng Press
8600000    145.79051            0            0    2.1728691    1.2415849
Averages over the last 6 of 11 rows, steps 9100000 to 9600000:
Temp E_pair E_mol TotEng Press
157.991 0 0 2.3547 1.34548
Loop time of 4.27779 on 1 procs for 1000000 steps with 6 atoms

unfix myat1
next a
jump SELF loop
variable xdes equal 9-25
variable xave equal xcm(topull,x)
fix mytth topull spring tether 0.15 -16 0 0 0
run 200000 # equilibrate
Step Temp E_pair E_mol TotEng Press
9600000    179.74391            0            0    2.6789123    1.5307397
Loop time of 0.855122 on 1 procs for 200000 steps with 6 atoms

fix myat1 all ave/time 10 10 100 v_xave v_xdes file position.9.dat
run 1000000 # data aquisition
Step Temp E_pair E_mol TotEng Press
9800000    161.77911            0            0    2.4111639    1.3777474
Averages over the last 6 of 11 rows, steps 10300000 to 10800000:
Temp E_pair E_mol TotEng Press
211.824 0.017126 0 3.17415 1.95201
Loop time of 4.31364 on 1 procs for 1000000 steps with 6 atoms

unfix myat1
next a
jump SELF loop
variable xdes equal 10-25
variable xave equal xcm(topull,x)
fix mytth topull spring tether 0.15 -15 0 0 0
run 200000 # equilibrate
Step Temp E_pair E_mol TotEng Press
10800000    299.31128            0            0    4.4609504    2.5490025
Loop time of 0.812325 on 1 procs for 200000 steps with 6 atoms

fix myat1 all ave/time 10 10 100 v_xave v_xdes file position.10.dat
run 1000000 # data aquisition
Step Temp E_pair E_mol TotEng Press
11000000    134.21465            0            0    2.0003418    1.1430022
Averages over the last 6 of 11 rows, steps 11500000 to 12000000:
Temp E_pair E_mol TotEng Press
176.295 0 0 2.62751 1.50137
Loop time of 4.22584 on 1 procs for 1000000 steps with 6 atoms

unfix myat1
next a
jump SELF loop
variable xdes equal 11-25
variable xave equal xcm(topull,x)
fix mytth topull spring tether 0.15 -14 0 0 0
run 200000 # equilibrate
Step Temp E_pair E_mol TotEng Press
12000000    180.90417            0            0    2.6962048    1.5406208
Loop time of 0.825686 on 1 procs for 200000 steps with 6 atoms

fix myat1 all ave/time 10 10 100 v_xave v_xdes file position.11.dat
run 1000000 # data aquisition
Step Temp E_pair E_mol TotEng Press
12200000    147.19773            0            0    2.1938423    1.2535691
Averages over the last 6 of 11 rows, steps 12700000 to 13200000:
Temp E_pair E_mol TotEng Press
131.366 0 0 1.95789 1.11875
Loop time of 4.51014 on 1 procs for 1000000 steps with 6 atoms

unfix myat1
next a
jump SELF loop
variable xdes equal 12-25
variable xave equal xcm(topull,x)
fix mytth topull spring tether 0.15 -13 0 0 0
run 200000 # equilibrate
Step Temp E_pair E_mol TotEng Press
13200000    182.75095            0            0    2.7237293    1.5563484
Loop time of 0.860003 on 1 procs for 200000 steps with 6 atoms

fix myat1 all ave/time 10 10 100 v_xave v_xdes file position.12.dat
run 1000000 # data aquisition
Step Temp E_pair E_mol TotEng Press
13400000     98.37992            0            0    1.4662593   0.83782562
Averages over the last 6 of 11 rows, steps 13900000 to 14400000:
Temp E_pair E_mol TotEng Press
182.686 0 0 2.72276 1.55579
Loop time of 4.38315 on 1 procs for 1000000 steps with 6 atoms

unfix myat1
next a
jump SELF loop
variable xdes equal 13-25
variable xave equal xcm(topull,x)
fix mytth topull spring tether 0.15 -12 0 0 0
run 200000 # equilibrate
Step Temp E_pair E_mol TotEng Press
14400000    169.67556            0            0    2.5288531    1.4449954
Loop time of 0.848079 on 1 procs for 200000 steps with 6 atoms

fix myat1 all ave/time 10 10 100 v_xave v_xdes file position.13.dat
run 1000000 # data aquisition
Step Temp E_pair E_mol TotEng Press
14600000    158.81939            0            0    2.3670522    1.3525418
Averages over the last 6 of 11 rows, steps 15100000 to 15600000:
Temp E_pair E_mol TotEng Press
158.41 0 0 2.36094 1.34905
Loop time of 4.54668 on 1 procs for 1000000 steps with 6 atoms

unfix myat1
next a
jump SELF loop
variable xdes equal 14-25
variable xave equal xcm(topull,x)
fix mytth topull spring tether 0.15 -11 0 0 0
run 200000 # equilibrate
Step Temp E_pair E_mol TotEng Press
15600000    103.35559            0            0    1.5404168   0.88019951
Loop time of 0.861677 on 1 procs for 200000 steps with 6 atoms

fix myat1 all ave/time 10 10 100 v_xave v_xdes file position.14.dat
run 1000000 # data aquisition
Step Temp E_pair E_mol TotEng Press
15800000    153.36057            0            0    2.2856937    1.3060533
Averages over the last 6 of 11 rows, steps 16300000 to 16800000:
Temp E_pair E_mol TotEng Press
125.326 0 0 1.86787 1.06731
Loop time of 4.41519 on 1 procs for 1000000 steps with 6 atoms

unfix myat1
next a
jump SELF loop
variable xdes equal 15-25
variable xave equal xcm(topull,x)
fix mytth topull spring tether 0.15 -10 0 0 0
run 200000 # equilibrate
Step Temp E_pair E_mol TotEng Press
16800000    119.10654            0            0    1.7751699    1.0143382
Loop time of 0.860692 on 1 procs for 200000 steps with 6 atoms

fix myat1 all ave/time 10 10 100 v_xave v_xdes file position.15.dat
run 1000000 # data aquisition
Step Temp E_pair E_mol TotEng Press
17000000    128.73174            0            0    1.9186244    1.0963086
Averages over the last 6 of 11 rows, steps 17500000 to 18000000:
Temp E_pair E_mol TotEng Press
160.484 0 0 2.39186 1.36671
Loop time of 4.33736 on 1 procs for 1000000 steps with 6 atoms

unfix myat1
next a
jump SELF loop
variable xdes equal 16-25
variable xave equal xcm(topull,x)
fix mytth topull spring tether 0.15 -9 0 0 0
run 200000 # equilibrate
Step Temp E_pair E_mol TotEng Press
18000000     149.1242            0            0    2.2225546    1.2699754
Loop time of 0.857297 on 1 procs for 200000 steps with 6 atoms

fix myat1 all ave/time 10 10 100 v_xave v_xdes file position.16.dat
run 1000000 # data aquisition
Step Temp E_pair E_mol TotEng Press
18200000    68.536829            0            0    1.0214763   0.58367511
Averages over the last 6 of 11 rows, steps 18700000 to 19200000:
Temp E_pair E_mol TotEng Press
174.542 0 0 2.60138 1.48644
Loop time of 4.35451 on 1 procs for 1000000 steps with 6 atoms

unfix myat1
next a
jump SELF loop
variable xdes equal 17-25
variable xave equal xcm(topull,x)
fix mytth topull spring tether 0.15 -8 0 0 0
run 200000 # equilibrate
Step Temp E_pair E_mol TotEng Press
19200000    93.119585            0            0     1.387859   0.79302742
Loop time of 0.856128 on 1 procs for 200000 steps with 6 atoms

fix myat1 all ave/time 10 10 100 v_xave v_xdes file position.17.dat
run 1000000 # data aquisition
Step Temp E_pair E_mol TotEng Press
19400000    77.256693            0            0    1.1514376   0.65793545
Averages over the last 6 of 11 rows, steps 19900000 to 20400000:
Temp E_pair E_mol TotEng Press
154.449 0 0 2.30192 1.31532
Loop time of 4.31401 on 1 procs for 1000000 steps with 6 atoms

unfix myat1
next a
jump SELF loop
variable xdes equal 18-25
variable xave equal xcm(topull,x)
fix mytth topull spring tether 0.15 -7 0 0 0
run 200000 # equilibrate
Step Temp E_pair E_mol TotEng Press
20400000    197.96155            0            0    2.9504288    1.6858852
Loop time of 0.856415 on 1 procs for 200000 steps with 6 atoms

fix myat1 all ave/time 10 10 100 v_xave v_xdes file position.18.dat
run 1000000 # data aquisition
Step Temp E_pair E_mol TotEng Press
20600000    148.81143            0            0     2.217893    1.2673117
Averages over the last 6 of 11 rows, steps 21100000 to 21600000:
Temp E_pair E_mol TotEng Press
167.927 0 0 2.50279 1.4301
Loop time of 4.45212 on 1 procs for 1000000 steps with 6 atoms

unfix myat1
next a
jump SELF loop
variable xdes equal 19-25
variable xave equal xcm(topull,x)
fix mytth topull spring tether 0.15 -6 0 0 0
run 200000 # equilibrate
Step Temp E_pair E_mol TotEng Press
21600000    134.18644            0            0    1.9999214     1.142762
Loop time of 0.862495 on 1 procs for 200000 steps with 6 atoms

fix myat1 all ave/time 10 10 100 v_xave v_xdes file position.19.dat
run 1000000 # data aquisition
Step Temp E_pair E_mol TotEng Press
21800000    117.68401            0            0    1.7539684    1.0022236
Averages over the last 6 of 11 rows, steps 22300000 to 22800000:
Temp E_pair E_mol TotEng Press
146.327 0 0 2.18087 1.24615
Loop time of 4.40972 on 1 procs for 1000000 steps with 6 atoms

unfix myat1
next a
jump SELF loop
variable xdes equal 20-25
variable xave equal xcm(topull,x)
fix mytth topull spring tether 0.15 -5 0 0 0
run 200000 # equilibrate
Step Temp E_pair E_mol TotEng Press
22800000    150.98511            0            0    2.2502897    1.2858233
Loop time of 0.874653 on 1 procs for 200000 steps with 6 atoms

fix myat1 all ave/time 10 10 100 v_xave v_xdes file position.20.dat
run 1000000 # data aquisition
Loop time of 4.41104 on 1 procs for 1000000 steps with 6 atoms

unfix myat1
next a
jump SELF loop
variable xdes equal 21-25
variable xave equal xcm(topull,x)
fix mytth topull spring tether 0.15 -4 0 0 0
run 200000 # equilibrate
Loop time of 0.866222 on 1 procs for 200000 steps with 6 atoms

fix myat1 all ave/time 10 10 100 v_xave v_xdes file position.21.dat
run 1000000 # data aquisition
Loop time of 4.52472 on 1 procs for 1000000 steps with 6 atoms

unfix myat1
next a
jump SELF loop
variable xdes equal 22-25
variable xave equal xcm(topull,x)
fix mytth topull spring tether 0.15 -3 0 0 0
run 200000 # equilibrate
Loop time of 0.871874 on 1 procs for 200000 steps with 6 atoms

fix myat1 all ave/time 10 10 100 v_xave v_xdes file position.22.dat
run 1000000 # data aquisition
Loop time of 4.47839 on 1 procs for 1000000 steps with 6 atoms

unfix myat1
next a
jump SELF loop
variable xdes equal 23-25
variable xave equal xcm(topull,x)
fix mytth topull spring tether 0.15 -2 0 0 0
run 200000 # equilibrate
Loop time of 0.872995 on 1 procs for 200000 steps with 6 atoms

fix myat1 all ave/time 10 10 100 v_xave v_xdes file position.23.dat
run 1000000 # data aquisition
Loop time of 4.44406 on 1 procs for 1000000 steps with 6 atoms

unfix myat1
next a
jump SELF loop
variable xdes equal 24-25
variable xave equal xcm(topull,x)
fix mytth topull spring tether 0.15 -1 0 0 0
run 200000 # equilibrate
Loop time of 0.867262 on 1 procs for 200000 steps with 6 atoms

fix myat1 all ave/time 10 10 100 v_xave v_xdes file position.24.dat
run 1000000 # data aquisition
Loop time of 4.45621 on 1 procs for 1000000 steps with 6 atoms

unfix myat1
next a
jump SELF loop
variable xdes equal 25-25
variable xave equal xcm(topull,x)
fix mytth topull spring tether 0.15 0 0 0 0
run 200000 # equilibrate
Loop time of 0.873532 on 1 procs for 200000 steps with 6 atoms

fix myat1 all ave/time 10 10 100 v_xave v_xdes file position.25.dat
run 1000000 # data aquisition
Loop time of 4.4364 on 1 procs for 1000000 steps with 6 atoms

unfix myat1
next a
jump SELF loop
variable xdes equal 26-25
variable xave equal xcm(topull,x)
fix mytth topull spring tether 0.15 1 0 0 0
run 200000 # equilibrate
Loop time of 0.876208 on 1 procs for 200000 steps with 6 atoms

fix myat1 all ave/time 10 10 100 v_xave v_xdes file position.26.dat
run 1000000 # data aquisition
Loop time of 4.42883 on 1 procs for 1000000 steps with 6 atoms

unfix myat1
next a
jump SELF loop
variable xdes equal 27-25
variable xave equal xcm(topull,x)
fix mytth topull spring tether 0.15 2 0 0 0
run 200000 # equilibrate
Loop time of 0.866563 on 1 procs for 200000 steps with 6 atoms

fix myat1 all ave/time 10 10 100 v_xave v_xdes file position.27.dat
run 1000000 # data aquisition
Loop time of 4.45803 on 1 procs for 1000000 steps with 6 atoms

unfix myat1
next a
jump SELF loop
variable xdes equal 28-25
variable xave equal xcm(topull,x)
fix mytth topull spring tether 0.15 3 0 0 0
run 200000 # equilibrate
Loop time of 0.871601 on 1 procs for 200000 steps with 6 atoms

fix myat1 all ave/time 10 10 100 v_xave v_xdes file position.28.dat
run 1000000 # data aquisition
Loop time of 4.42871 on 1 procs for 1000000 steps with 6 atoms

unfix myat1
next a
jump SELF loop
variable xdes equal 29-25
variable xave equal xcm(topull,x)
fix mytth topull spring tether 0.15 4 0 0 0
run 200000 # equilibrate
Loop time of 0.859794 on 1 procs for 200000 steps with 6 atoms

fix myat1 all ave/time 10 10 100 v_xave v_xdes file position.29.dat
run 1000000 # data aquisition
Loop time of 4.42353 on 1 procs for 1000000 steps with 6 atoms

unfix myat1
next a
jump SELF loop
variable xdes equal 30-25
variable xave equal xcm(topull,x)
fix mytth topull spring tether 0.15 5 0 0 0
run 200000 # equilibrate
Loop time of 0.87041 on 1 procs for 200000 steps with 6 atoms

fix myat1 all ave/time 10 10 100 v_xave v_xdes file position.30.dat
run 1000000 # data aquisition
Loop time of 4.50773 on 1 procs for 1000000 steps with 6 atoms

unfix myat1
next a
jump SELF loop
variable xdes equal 31-25
variable xave equal xcm(topull,x)
fix mytth topull spring tether 0.15 6 0 0 0
run 200000 # equilibrate
Loop time of 0.878982 on 1 procs for 200000 steps with 6 atoms

fix myat1 all ave/time 10 10 100 v_xave v_xdes file position.31.dat
run 1000000 # data aquisition
Loop time of 4.51021 on 1 procs for 1000000 steps with 6 atoms

unfix myat1
next a
jump SELF loop
variable xdes equal 32-25
variable xave equal xcm(topull,x)
fix mytth topull spring tether 0.15 7 0 0 0
run 200000 # equilibrate
Loop time of 0.872478 on 1 procs for 200000 steps with 6 atoms

fix myat1 all ave/time 10 10 100 v_xave v_xdes file position.32.dat
run 1000000 # data aquisition
Loop time of 4.48557 on 1 procs for 1000000 steps with 6 atoms

unfix myat1
next a
jump SELF loop
variable xdes equal 33-25
variable xave equal xcm(topull,x)
fix mytth topull spring tether 0.15 8 0 0 0
run 200000 # equilibrate
Loop time of 0.877735 on 1 procs for 200000 steps with 6 atoms

fix myat1 all ave/time 10 10 100 v_xave v_xdes file position.33.dat
run 1000000 # data aquisition
Loop time of 4.53944 on 1 procs for 1000000 steps with 6 atoms

unfix myat1
next a
jump SELF loop
variable xdes equal 34-25
variable xave equal xcm(topull,x)
fix mytth topull spring tether 0.15 9 0 0 0
run 200000 # equilibrate
Loop time of 0.87514 on 1 procs for 200000 steps with 6 atoms

fix myat1 all ave/time 10 10 100 v_xave v_xdes file position.34.dat
run 1000000 # data aquisition
Loop time of 4.48186 on 1 procs for 1000000 steps with 6 atoms

unfix myat1
next a
jump SELF loop
variable xdes equal 35-25
variable xave equal xcm(topull,x)
fix mytth topull spring tether 0.15 10 0 0 0
run 200000 # equilibrate
Loop time of 0.880281 on 1 procs for 200000 steps with 6 atoms

fix myat1 all ave/time 10 10 100 v_xave v_xdes file position.35.dat
run 1000000 # data aquisition
Loop time of 4.50549 on 1 procs for 1000000 steps with 6 atoms

unfix myat1
next a
jump SELF loop
variable xdes equal 36-25
variable xave equal xcm(topull,x)
fix mytth topull spring tether 0.15 11 0 0 0
run 200000 # equilibrate
Loop time of 0.878482 on 1 procs for 200000 steps with 6 atoms

fix myat1 all ave/time 10 10 100 v_xave v_xdes file position.36.dat
run 1000000 # data aquisition
Loop time of 4.45886 on 1 procs for 1000000 steps with 6 atoms

unfix myat1
next a
jump SELF loop
variable xdes equal 37-25
variable xave equal xcm(topull,x)
fix mytth topull spring tether 0.15 12 0 0 0
run 200000 # equilibrate
Loop time of 0.862241 on 1 procs for 200000 steps with 6 atoms

fix myat1 all ave/time 10 10 100 v_xave v_xdes file position.37.dat
run 1000000 # data aquisition
Loop time of 4.47541 on 1 procs for 1000000 steps with 6 atoms

unfix myat1
next a
jump SELF loop
variable xdes equal 38-25
variable xave equal xcm(topull,x)
fix mytth topull spring tether 0.15 13 0 0 0
run 200000 # equilibrate
Loop time of 0.869554 on 1 procs for 200000 steps with 6 atoms

fix myat1 all ave/time 10 10 100 v_xave v_xdes file position.38.dat
run 1000000 # data aquisition
Loop time of 4.48282 on 1 procs for 1000000 steps with 6 atoms

unfix myat1
next a
jump SELF loop
variable xdes equal 39-25
variable xave equal xcm(topull,x)
fix mytth topull spring tether 0.15 14 0 0 0
run 200000 # equilibrate
Loop time of 0.875701 on 1 procs for 200000 steps with 6 atoms

fix myat1 all ave/time 10 10 100 v_xave v_xdes file position.39.dat
run 1000000 # data aquisition
Loop time of 4.4761 on 1 procs for 1000000 steps with 6 atoms

unfix myat1
next a
jump SELF loop
variable xdes equal 40-25
variable xave equal xcm(topull,x)
fix mytth topull spring tether 0.15 15 0 0 0
run 200000 # equilibrate
Loop time of 0.872047 on 1 procs for 200000 steps with 6 atoms

fix myat1 all ave/time 10 10 100 v_xave v_xdes file position.40.dat
run 1000000 # data aquisition
Loop time of 4.46188 on 1 procs for 1000000 steps with 6 atoms

unfix myat1
next a
jump SELF loop
variable xdes equal 41-25
variable xave equal xcm(topull,x)
fix mytth topull spring tether 0.15 16 0 0 0
run 200000 # equilibrate
Loop time of 0.875247 on 1 procs for 200000 steps with 6 atoms

fix myat1 all ave/time 10 10 100 v_xave v_xdes file position.41.dat
run 1000000 # data aquisition
Loop time of 4.47433 on 1 procs for 1000000 steps with 6 atoms

unfix myat1
next a
jump SELF loop
variable xdes equal 42-25
variable xave equal xcm(topull,x)
fix mytth topull spring tether 0.15 17 0 0 0
run 200000 # equilibrate
Loop time of 0.869822 on 1 procs for 200000 steps with 6 atoms

fix myat1 all ave/time 10 10 100 v_xave v_xdes file position.42.dat
run 1000000 # data aquisition
Loop time of 4.43602 on 1 procs for 1000000 steps with 6 atoms

unfix myat1
next a
jump SELF loop
variable xdes equal 43-25
variable xave equal xcm(topull,x)
fix mytth topull spring tether 0.15 18 0 0 0
run 200000 # equilibrate
Loop time of 0.860443 on 1 procs for 200000 steps with 6 atoms

fix myat1 all ave/time 10 10 100 v_xave v_xdes file position.43.dat
run 1000000 # data aquisition
Loop time of 4.4518 on 1 procs for 1000000 steps with 6 atoms

unfix myat1
next a
jump SELF loop
variable xdes equal 44-25
variable xave equal xcm(topull,x)
fix mytth topull spring tether 0.15 19 0 0 0
run 200000 # equilibrate
Loop time of 0.868249 on 1 procs for 200000 steps with 6 atoms

fix myat1 all ave/time 10 10 100 v_xave v_xdes file position.44.dat
run 1000000 # data aquisition
Loop time of 4.39414 on 1 procs for 1000000 steps with 6 atoms

unfix myat1
next a
jump SELF loop
variable xdes equal 45-25
variable xave equal xcm(topull,x)
fix mytth topull spring tether 0.15 20 0 0 0
run 200000 # equilibrate
Loop time of 0.857217 on 1 procs for 200000 steps with 6 atoms

fix myat1 all ave/time 10 10 100 v_xave v_xdes file position.45.dat
run 1000000 # data aquisition
Loop time of 4.41735 on 1 procs for 1000000 steps with 6 atoms

unfix myat1
next a
jump SELF loop
variable xdes equal 46-25
variable xave equal xcm(topull,x)
fix mytth topull spring tether 0.15 21 0 0 0
run 200000 # equilibrate
Loop time of 0.873281 on 1 procs for 200000 steps with 6 atoms

fix myat1 all ave/time 10 10 100 v_xave v_xdes file position.46.dat
run 1000000 # data aquisition
Loop time of 4.45508 on 1 procs for 1000000 steps with 6 atoms

unfix myat1
next a
jump SELF loop
variable xdes equal 47-25
variable xave equal xcm(topull,x)
fix mytth topull spring tether 0.15 22 0 0 0
run 200000 # equilibrate
Loop time of 0.870632 on 1 procs for 200000 steps with 6 atoms

fix myat1 all ave/time 10 10 100 v_xave v_xdes file position.47.dat
run 1000000 # data aquisition
Loop time of 4.51907 on 1 procs for 1000000 steps with 6 atoms

unfix myat1
next a
jump SELF loop
variable xdes equal 48-25
variable xave equal xcm(topull,x)
fix mytth topull spring tether 0.15 23 0 0 0
run 200000 # equilibrate
Loop time of 0.869588 on 1 procs for 200000 steps with 6 atoms

fix myat1 all ave/time 10 10 100 v_xave v_xdes file position.48.dat
run 1000000 # data aquisition
Loop time of 4.41273 on 1 procs for 1000000 steps with 6 atoms

unfix myat1
next a
jump SELF loop
variable xdes equal 49-25
variable xave equal xcm(topull,x)
fix mytth topull spring tether 0.15 24 0 0 0
run 200000 # equilibrate
Loop time of 0.85805 on 1 procs for 200000 steps with 6 atoms

fix myat1 all ave/time 10 10 100 v_xave v_xdes file position.49.dat
run 1000000 # data aquisition
Loop time of 4.41773 on 1 procs for 1000000 steps with 6 atoms

unfix myat1
next a
jump SELF loop
variable xdes equal 50-25
variable xave equal xcm(topull,x)
fix mytth topull spring tether 0.15 25 0 0 0
run 200000 # equilibrate
Loop time of 0.86575 on 1 procs for 200000 steps with 6 atoms

fix myat1 all ave/time 10 10 100 v_xave v_xdes file position.50.dat
run 1000000 # data aquisition
Loop time of 4.45359 on 1 procs for 1000000 steps with 6 atoms

unfix myat1
next a
jump SELF loop
