LAMMPS (15 Sep 2022)
# pure bulk water system
# Written by Simon Gravelle
# My personal page : https://simongravelle.github.io/
# My Github account: https://github.com/simongravelle/
# LAMMPS tutorials for beginners: https://lammpstutorials.github.io/

units real
atom_style full
bond_style harmonic
angle_style charmm
dihedral_style charmm
pair_style lj/cut/tip4p/long 1 2 1 1 0.1546 12.0
kspace_style pppm/tip4p 1.0e-4

special_bonds lj 0.0 0.0 0.5

read_data ../singlePEG/PEG.data
Reading data file ...
  orthogonal box = (-23.407027 -8.7776353 -8.7776353) to (23.407027 8.7776353 8.7776353)
  reading atoms ...
  66 atoms
  reading velocities ...
  66 velocities
  scanning bonds ...
  scanning angles ...
  scanning dihedrals ...
  reading bonds ...
  65 bonds
  reading angles ...
  118 angles
  reading dihedrals ...
  74 dihedrals
Finding 1-2 1-3 1-4 neighbors ...
     4 = max # of 1-2 neighbors
     6 = max # of 1-3 neighbors
    12 = max # of 1-4 neighbors
    14 = max # of special neighbors
read_data ../pureH2O/H2O.data add append
Reading data file ...
  orthogonal box = (-23.407027 -8.7776353 -8.7776353) to (23.407027 8.7776353 8.7776353)
  reading atoms ...
  1386 atoms
  reading velocities ...
  1386 velocities
  scanning bonds ...
  scanning angles ...
  reading bonds ...
  924 bonds
  reading angles ...
  462 angles
Finding 1-2 1-3 1-4 neighbors ...
     4 = max # of 1-2 neighbors
     6 = max # of 1-3 neighbors
    12 = max # of 1-4 neighbors
    14 = max # of special neighbors
include ../PARM.lammps
# Mass

mass 		1 15.9994 # H2O O
mass 		2 1.008 # H2O H
mass 		3 12.011 # CC32A
mass 		4 15.9994 # OC30A
mass 		5 1.008 # HCA2
mass 		6 15.9994 # OC311
mass 		7 1.008 # HCP1

# Pair Coeff

pair_coeff 	1 1 0.185199 3.1589
pair_coeff 	2 2 0.0 0.0
pair_coeff 	3 3 0.056 3.58141
pair_coeff 	4 4 0.100 2.93997
pair_coeff 	5 5 0.035 2.38761
pair_coeff 	6 6 0.192 3.14487
pair_coeff 	7 7 0.046 0.40001

# Bond coeff

bond_coeff 	1 0 0.9572
bond_coeff 	2 222.35 1.5300
bond_coeff 	3 308.79 1.1111
bond_coeff 	4 359.76 1.1415
bond_coeff 	5 427.715 1.1420
bond_coeff 	6 544.635 0.9600

# Angle coeff

angle_coeff 	1 0 104.52 0 0
angle_coeff	2 50.0000 109.0000 0.0000 0.0000
angle_coeff	3 26.5000 110.1000 22.5300 2.179
angle_coeff	4 45.0000 111.5000 0.0000 0.0000
angle_coeff	5 13.0258 109.4000 0.0000 0.0000
angle_coeff	6 35.5000 109.0000 5.4000 1.802
angle_coeff	7 55.0000 108.8900 0.0000 0.0000
angle_coeff	8 75.7000 110.1000 0.0000 0.0000
angle_coeff	9 95.0000 109.7000 0.0000 0.0000

# Dihedral coeff
# weighting factor put to 0, possibly wrong

dihedral_coeff	1 0.57 1 0 0
dihedral_coeff	2 0.29 2 0 0
dihedral_coeff	3 0.43 3 0 0
dihedral_coeff	4 0.59 1 180 0
dihedral_coeff	5 1.16 2 0 0
dihedral_coeff	6 0.12 1 0 0
dihedral_coeff	7 0.42 2 0 0
dihedral_coeff	8 0.29 3 0 0
dihedral_coeff	9 2.87 1 180 0
dihedral_coeff	10 0.03 2 0 0
dihedral_coeff	11 0.23 3 0 0
dihedral_coeff	12 1.36 1 180 0
dihedral_coeff	13 0.16 2 0 0
dihedral_coeff	14 1.01 3 0 0

group H2O type 1 2
1386 atoms in group H2O
group PEG type 3 4 5 6 7
66 atoms in group PEG

delete_atoms overlap 2.0 H2O PEG mol yes
System init for delete_atoms ...
PPPM initialization ...
  extracting TIP4P info from pair style
  G vector (1/distance) = 0.22752364
  grid = 20 9 9
  stencil order = 5
  estimated absolute RMS force accuracy = 0.026481872
  estimated relative force accuracy = 7.9749371e-05
  3d grid and FFT values/proc = 2560 540
Generated 21 of 21 mixed pair_coeff terms from geometric mixing rule
Deleted 102 atoms, new total = 1350
Deleted 68 bonds, new total = 921
Deleted 34 angles, new total = 546
Deleted 0 dihedrals, new total = 74

fix myshk H2O shake 1.0e-4 200 0 b 1 a 1
Finding SHAKE clusters ...
       0 = # of size 2 clusters
       0 = # of size 3 clusters
       0 = # of size 4 clusters
     428 = # of frozen angles
  find clusters CPU = 0.000 seconds
fix mynpt all npt temp 300 300 100 x 1 1 1000
timestep 1.0

dump mydmp all atom 100 dump.lammpstrj
thermo 100
variable mytemp equal temp
variable myvol equal vol
fix myat1 all ave/time 10 10 100 v_mytemp file temperature.dat
fix myat2 all ave/time 10 10 100 v_myvol file volume.dat

variable myenthalpy equal enthalpy
fix myat3 all ave/time 10 10 100 v_myenthalpy file enthalpy.dat

run 10000
PPPM initialization ...
  extracting TIP4P info from pair style
  G vector (1/distance) = 0.22752362
  grid = 20 9 9
  stencil order = 5
  estimated absolute RMS force accuracy = 0.025449258
  estimated relative force accuracy = 7.6639684e-05
  3d grid and FFT values/proc = 2560 540
Generated 21 of 21 mixed pair_coeff terms from geometric mixing rule
Step          Temp          E_pair         E_mol          TotEng         Press          Volume
0   292.93282     -3870.1219      92.98199      -2972.9439      1135.5678      14427.508
Averages over the last 51 of 101 rows, steps 5000 to 10000:
Temp E_pair E_mol TotEng Press Volume
300.937 -4077.79 89.6672 -3161.95 -21.1325 13757.1
Loop time of 122.297 on 4 procs for 10000 steps with 1350 atoms

write_data mix.data
System init for write_data ...
PPPM initialization ...
  extracting TIP4P info from pair style
  G vector (1/distance) = 0.22589811
  grid = 18 9 9
  stencil order = 5
  estimated absolute RMS force accuracy = 0.028876892
  estimated relative force accuracy = 8.6961902e-05
  3d grid and FFT values/proc = 2560 486
Generated 21 of 21 mixed pair_coeff terms from geometric mixing rule
