LAMMPS (29 Sep 2021 - Update 2)
# LAMMPS input script
# author : Simon Gravelle
# lammpstutorials.github.io

# define some variables
variable sigma equal 3.405 # Angstrom
variable epsilon equal 0.238 # Kcal/mol
variable U0 equal 2*0.238
variable dlt equal 0.5 # Angstrom
variable x0 equal 5.0 # Angstrom

# initialise the simulation
units real
atom_style atomic
pair_style lj/cut 3.822 # 2^(1/6) * 3.405 WCA potential
pair_modify shift yes
boundary p p p

# define the system
region myreg block -25 25 -20 20 -20 20
create_box 1 myreg
Created orthogonal box = (-25.000000 -20.000000 -20.000000) to (25.000000 20.000000 20.000000)
create_atoms 1 random 60 341341 myreg
Created 60 atoms

# settings
mass * 39.95
pair_coeff * * 0.238 3.405
neigh_modify every 1 delay 4 check yes

# run
minimize 1e-4 1e-6 100 1000
  update every 1 steps, delay 0 steps, check yes
Step Temp E_pair E_mol TotEng Press
0            0    535275.03            0    535275.03    1837009.9
Loop time of 0.000121001 on 1 procs for 14 steps with 60 atoms

Minimization stats:
  Stopping criterion = quadratic factors are zero
  Energy initial, next-to-last, final =
  Force two-norm initial, final = 5782374.4 0.89789006
  Force max component initial, final = 2978787.9 0.25215621
  Final line search alpha, max atom move = 0.39657957 0.10000000
  Iterations, force evaluations = 14 17

reset_timestep 0

variable U atom 0.476*atan((x+5)/0.5)-0.476*atan((x-5)/0.5)
variable F atom 0.476/((x-5)^2/0.5^2+1)/0.5-0.476/((x+5)^2/0.5^2+1)/0.5
fix myadf all addforce v_F 0.0 0.0 energy v_U

fix mynve all nve
fix mylgv all langevin 119.8 119.8 100 1530917

region mymes block -5 5 INF INF INF INF
variable n_center equal count(all,mymes)
fix myat all ave/time 100 500 50000 v_n_center file density_evolution.dat

timestep 2.0
thermo 100000
run 2000000
Step Temp E_pair E_mol TotEng Press
0            0  0.098200702            0  0.098200702    1.6667745
Averages over the last 11 of 21 rows, steps 1000000 to 2000000:
Temp E_pair E_mol TotEng Press
119.965 0.243552 0 21.3415 13.7981
Loop time of 23.6824 on 1 procs for 2000000 steps with 60 atoms

unfix myat # important
reset_timestep 0

compute cc1 all chunk/atom bin/1d x 0.0 1.0
fix myac all ave/chunk 10 1000000 10000000 cc1 density/number file density_profile_10run.dat
dump mydmp all atom 1000000 dump.lammpstrj

run 10000000
Step Temp E_pair E_mol TotEng Press
0    126.36413  0.067669622            0    22.291051    13.528953
Averages over the last 51 of 101 rows, steps 5000000 to 10000000:
Temp E_pair E_mol TotEng Press
123.565 0.0887847 0 21.8199 13.1864
Loop time of 128.35 on 1 procs for 10000000 steps with 60 atoms

# uncomment to perform long run
unfix myac
reset_timestep 0
fix myac all ave/chunk 10 10000000 100000000 cc1 density/number file density_profile_100run.dat
run 100000000
Step Temp E_pair E_mol TotEng Press
0    127.71252   0.46373231            0    22.924251    16.287992
Averages over the last 501 of 1001 rows, steps 50000000 to 100000000:
Temp E_pair E_mol TotEng Press
121.467 0.127598 0 21.4898 13.2494
Loop time of 1282.31 on 1 procs for 100000000 steps with 60 atoms

0000000
ERROR: Unknown command: 0000000 (src/input.cpp:274)
Last command: 0000000
